[TITLE]
;;Project Title/Notes
Templet file for all other runs.
Includes blocked culvert on
Trib01 at Westwood Ave.
Culverts sized using field survey data.
Nat. Chann. Transects from GIS.
Loss Coeffiecnts estimated from
SWMM User Manual Appendix.
Pipe Network Data from GIS and Sewer Mapping
provided by City of Richmond and Henrico Co.

[OPTIONS]
;;Option             Value
FLOW_UNITS           CFS
INFILTRATION         HORTON
FLOW_ROUTING         DYNWAVE
LINK_OFFSETS         DEPTH
MIN_SLOPE            0
ALLOW_PONDING        NO
SKIP_STEADY_STATE    NO

START_DATE           01/01/2000
START_TIME           00:00:00
REPORT_START_DATE    01/01/2000
REPORT_START_TIME    00:00:00
END_DATE             01/02/2000
END_TIME             00:00:00
SWEEP_START          01/01
SWEEP_END            12/31
DRY_DAYS             0
REPORT_STEP          00:05:00
WET_STEP             00:05:00
DRY_STEP             00:05:00
ROUTING_STEP         0:00:30 

INERTIAL_DAMPING     PARTIAL
NORMAL_FLOW_LIMITED  BOTH
FORCE_MAIN_EQUATION  H-W
VARIABLE_STEP        0.75
LENGTHENING_STEP     0
MIN_SURFAREA         0
MAX_TRIALS           0
HEAD_TOLERANCE       0
SYS_FLOW_TOL         5
LAT_FLOW_TOL         5
MINIMUM_STEP         0.5
THREADS              1

[EVAPORATION]
;;Data Source    Parameters
;;-------------- ----------------
CONSTANT         0.0
DRY_ONLY         NO

[RAINGAGES]
;;Name           Format    Interval SCF      Source    
;;-------------- --------- ------ ------ ----------
RG_JB01          INTENSITY 0:05     1.0      TIMESERIES 10yr6hrCyclonic 

[SUBCATCHMENTS]
;;Name           Rain Gage        Outlet           Area     %Imperv  Width    %Slope   CurbLen  SnowPack        
;;-------------- ---------------- ---------------- -------- -------- -------- -------- -------- ----------------
HCN01            RG_JB01          5475             243      33       2630     1.39     0                        
HCN02            RG_JB01          JB_NC02          106      50       1457     1.58     0                        
HCN03            RG_JB01          JB_CUL01         114      28       1360     1.48     0                        
HCN04            RG_JB01          JB_CUL02         93       44       1306     1.81     0                        
HCN05            RG_JB01          JB_NC06          151      27       1448     1.76     0                        
HCS01            RG_JB01          5492             93       63       2349     1.85     0                        
;Includes area HCS03 (8 acres).
;% impervious adjusted for additional area.
HCS02            RG_JB01          JB_NC02          85       56       1329     1.83     0                        
HCS04            RG_JB01          5593             109      63       1268     1.17     0                        
HCS05            RG_JB01          JB_NC05          84       49       1651     1.26     0                        
;Includes area for HCS0602 (26 acres)
;% Impervious addjusted for addtional area.
HCS0601          RG_JB01          JBT_NC03         168      65       1854     1.08     0                        
;Includes area HCS0604 (43 acres)
;% Impervious adjusted for additional area.
HCS0603          RG_JB01          JBT_CUL03        104      22       740      0.17     0                        
JB0101           RG_JB01          JX8025           195      24       1739     1.31     0                        
;CHANGED WIDTH FROM 2151 TO 5800
JB0102           RG_JB01          JX8343           227      29       2151     1.05     0                        
JB0103           RG_JB01          JX8464           242      27       2080     0.63     0                        
JB0104           RG_JB01          JX9038           130      29       1559     0.77     0                        
JB0201           RG_JB01          JX8762           231      28       1967     .62      0                        
JB0202           RG_JB01          JX8503           215      27       2129     .86      0                        
JB03             RG_JB01          JX10021          94       43       1219     0.36     0                        
JB0401           RG_JB01          JX9591           286      24       2117     0.61     0                        
JB0402           RG_JB01          JX9468           204      40       1314     .41      0                        
JB040302         RG_JB01          JX9044           102      49       1340     0.96     0                        
;INCLUDES AREA WS040301, 53 ACRES
;% Impervious similar, no adjustment.
JB0404           RG_JB01          JX9146           165      32       1358     0.45     0                        
JB0405           RG_JB01          RP03             54       26       1464     1.12     0                        
JB0501           RG_JB01          MH1002           59       55       1149     1.62     0                        
JB0504           RG_JB01          JX10353          93       66       1568     1.09     0                        
JB0505           RG_JB01          JX10225          117      43       2852     1.45     0                        
JB0506           RG_JB01          JX10216          37       55       790      2.18     0                        
JB0507           RG_JB01          JB_NC07a         148      13       2452     2.50     0                        

[SUBAREAS]
;;Subcatchment   N-Imperv   N-Perv     S-Imperv   S-Perv     PctZero    RouteTo    PctRouted 
;;-------------- ---------- ---------- ---------- ---------- ---------- ---------- ----------
HCN01            0.015      0.15       0.05       0.15       25         OUTLET    
HCN02            0.015      0.15       0.05       0.15       25         OUTLET    
HCN03            0.015      0.24       0.05       0.15       25         OUTLET    
HCN04            0.015      0.15       0.05       0.15       25         OUTLET    
HCN05            0.015      0.4        0.05       0.15       25         OUTLET    
HCS01            0.015      0.15       0.05       0.15       25         OUTLET    
HCS02            0.015      0.15       0.05       0.15       25         OUTLET    
HCS04            0.015      0.15       0.05       0.15       25         OUTLET    
HCS05            0.015      0.15       0.05       0.15       25         OUTLET    
HCS0601          0.015      0.15       0.05       0.15       25         OUTLET    
HCS0603          0.015      0.15       0.05       0.15       25         OUTLET    
JB0101           0.015      0.15       0.05       0.15       25         OUTLET    
JB0102           0.015      0.15       0.05       0.15       25         OUTLET    
JB0103           0.015      0.15       0.05       0.15       25         OUTLET    
JB0104           0.015      0.15       0.05       0.15       25         OUTLET    
JB0201           0.015      0.15       0.05       0.15       25         OUTLET    
JB0202           0.015      0.15       0.05       0.15       25         OUTLET    
JB03             0.015      0.15       0.05       0.15       25         OUTLET    
JB0401           0.015      0.24       0.05       0.15       25         OUTLET    
JB0402           0.015      0.15       0.05       0.15       25         OUTLET    
JB040302         0.015      0.15       0.05       0.15       25         OUTLET    
JB0404           0.015      0.15       0.05       0.15       25         OUTLET    
JB0405           0.015      0.15       0.05       0.15       25         OUTLET    
JB0501           0.015      0.15       0.05       0.15       25         OUTLET    
JB0504           0.015      0.15       0.05       0.15       25         OUTLET    
JB0505           0.015      0.15       0.05       0.15       25         OUTLET    
JB0506           0.015      0.15       0.05       0.15       25         OUTLET    
JB0507           0.015      0.4        0.05       0.15       25         OUTLET    

[INFILTRATION]
;;Subcatchment   MaxRate    MinRate    Decay      DryTime    MaxInfil  
;;-------------- ---------- ---------- ---------- ---------- ----------
HCN01            3.0        0.5        4          7          0         
HCN02            3.0        0.5        4          7          0         
HCN03            3.0        0.5        4          7          0         
HCN04            3.0        0.5        4          7          0         
HCN05            3.0        0.5        4          7          0         
HCS01            3.0        0.5        4          7          0         
HCS02            3.0        0.5        4          7          0         
HCS04            3.0        0.5        4          7          0         
HCS05            3.0        0.5        4          7          0         
HCS0601          3.0        0.5        4          7          0         
HCS0603          3.0        0.5        4          7          0         
JB0101           3.0        0.5        4          7          0         
JB0102           3.0        0.5        4          7          0         
JB0103           3.0        0.5        4          7          0         
JB0104           3.0        0.5        4          7          0         
JB0201           3.0        0.5        4          7          0         
JB0202           3.0        0.5        4          7          0         
JB03             3.0        0.5        4          7          0         
JB0401           3.0        0.5        4          7          0         
JB0402           3.0        0.5        4          7          0         
JB040302         3.0        0.5        4          7          0         
JB0404           3.0        0.5        4          7          0         
JB0405           3.0        0.5        4          7          0         
JB0501           3.0        0.5        4          7          0         
JB0504           3.0        0.5        4          7          0         
JB0505           3.0        0.5        4          7          0         
JB0506           3.0        0.5        4          7          0         
JB0507           3.0        0.5        4          7          0         

[JUNCTIONS]
;;Name           Elevation  MaxDepth   InitDepth  SurDepth   Aponded   
;;-------------- ---------- ---------- ---------- ---------- ----------
6                193        7          0          14         0         
7                0          0          0          0          0         
8                0          0          0          0          0         
27               0          0          0          0          0         
28               0          0          0          0          0         
5363             191.57     14.43      0          0          0         
5364             191.42     15.58      0          0          0         
5366             191.27     13.23      0          0          0         
5369             191.07     12.93      0          0          0         
5413             189.17     14.83      0          0          0         
5416             189.33     14.67      0          0          0         
5417             189.42     14.58      0          0          0         
5419             190.03     13.97      0          0          0         
5423             190.20     14.80      0          0          0         
5427             190.38     13.62      0          0          0         
5432             190.78     13.22      0          0          0         
5452             188.57     14.43      0          0          0         
5454             188.33     15.67      0          0          0         
5455             188.22     15.78      0          0          0         
5459             189.25     14.75      0          0          0         
5461             188.68     14.32      0          0          0         
5475             188.96     14.04      0          0          0         
5476             188.09     15.91      0          0          0         
5478             187.77     16.23      0          0          0         
5480             187.45     15.05      0          0          0         
5482             187.64     15.36      0          0          0         
5492             187.29     14.96      0          0          0         
5495             187.18     14.82      0          0          0         
5496             187.13     14.87      0          0          0         
5498             187.06     14.94      0          0          0         
5501             186.70     13.30      0          0          0         
5502             186.80     13.20      0          0          0         
5507             186.25     16.32      0          0          0         
5540             185.59     14.41      0          0          0         
;Begin box culvert at Merkel Rd. to W. Broad St.
;See Pics Jordan Branch 8-06-2009.ppt
5542             185.69     16.32      0          0          0         
5577             201.22     8.78       0          0          0         
5578             205.70     10.30      0          0          0         
5591             197.40     8.60       0          0          0         
5592             198.28     7.72       0          0          0         
5593             195.67     8.33       0          0          0         
5602             193.54     10.46      0          0          0         
6292             190.92     11.08      0          0          0         
6302             190.31     11.69      0          0          0         
6306             189.48     12.52      0          0          0         
6307             189.30     12.70      0          0          0         
6308             189.35     12.65      0          0          0         
6309             186.10     13.90      0          0          0         
6310             182.82     19.18      0          0          0         
6311             180.74     14.76      0          0          0         
6312             178.59     13.41      0          0          0         
6313             178.14     12.36      0          0          0         
6322             184.33     13.67      0          0          0         
;Upstream at Bridge at Staples Mill Rd
JB_CUL01         174.3      12         0          0          0         
;Upstream at Bridge at Dabney Rd.
JB_CUL02         166.3      26.1       0          0          0         
;Upstream Culvert at RR
JB_CUL03         162        16.1       0          0          0         
;Upstream at Culvert under I64
JB_CUL04         156        20.1       0          0          0         
;Open to Nat. Channel at W. Broad St.
;See Pics Jordan Branch 8-06-2009.ppt
;Elevations estimated from field survey and
;GIS
JB_NC01          184        16.1       0          0          0         
;Inv. est. from GIS
JB_NC02          179.42     16.1       0          0          0         
;Downstream at Bridge at Staples Mill Rd
JB_NC03          174        12         0          0          0         
JB_NC04          171.26     25         0          0          0         
;Upstream at Bridge at Dabney Rd.
JB_NC05          166        26.1       0          0          0         
;Downstream Culvert at RR
JB_NC06          156.3      22         0          0          0         
;Upstream of Young's Pond, Bryant Park
JB_NC07          150        18         0          0          0         
;Downstream at Culvert under I64
JB_NC07a         155.7      16         0          0          0         
JB_NC08          146        20         0          0          0         
;Enterence to Culvert at Westwood
;Inv. 184.4 from County Map 038SW.
JBT_CUL01        184        14.56      0          12         0         
;Upstream at Culvert under CSX Road
JBT_CUL02        182.3      12.1       0          0          0         
;Under RR on JB Tributary
;Size & Invert est. until
;field survey is completed.
JBT_CUL03        180        16         0          0          0         
JBT_CUL04        168        14         0          0          0         
;Outfall at Broad St. near Westwood Ave.
;Empty into natural channel parallel to Westwood Ave.
;Serves Water Shed 04.
JBT_NC01         186.54     10         0          0          0         
;Joins NatChann 01 & 02 together
;Inv. 185.45, average of US and DS inverts
JBT_NC02         185.45     14.56      0          0          0         
;Culvert at Westwood Ave.
;Inv. 183.8 from County Map 038SW
JBT_NC03         183.8      12.1       0          12         0         
;Downstream at Culvert under CSX Road
JBT_NC04         182        10.1       0          0          0         
;Under RR on JB Tributary
;Size & Invert est. until
;field survey is completed.
JBT_NC05         179.42     16         0          0          0         
JBT_NC06         167.8      14         0          0          0         
JX10021          206.39     9.13       0          0          0         
JX10216          184.6      10.09      0          0          0         
JX10217          173.91     14.48      0          0          0         
JX10218          173.96     14.54      0          0          0         
JX10222          176.4      17.00      0          0          0         
JX10223          177.98     8.86       0          0          0         
JX10224          180.51     19.91      0          0          0         
JX10225          184.35     12         0          0          0         
JX10306          181.43     16.38      0          0          0         
JX10310          182.05     18.02      0          0          0         
JX10311          184.06     13.54      0          0          0         
JX10335          184.86     11.43      0          0          0         
JX10339          185.4      12.09      0          0          0         
JX10351          185.63     7.67       0          0          0         
JX10352          185.95     6.92       0          0          0         
JX10353          186.92     8.97       0          0          0         
JX7805           188.87     14.52      0          0          0         
JX7806           188.81     14.60      0          0          0         
JX7867           234        7.10       0          0          0         
JX7891           247.76     12.33      0          0          0         
JX7894           249.45     10.86      0          0          0         
JX7895           246.44     14.06      0          0          0         
JX7899           240.49     13.71      0          0          0         
JX7906           236.33     13.80      0          0          0         
JX7907           235.84     14.26      0          0          0         
JX7908           238.52     11.34      0          0          0         
JX8008           244.55     7.08       0          0          0         
JX8013           232.8      15.80      0          0          0         
JX8014           231.87     17.33      0          0          0         
JX8015           229.34     16.96      0          0          0         
JX8024           225.4      19.20      0          0          0         
JX8025           224.7      20.90      0          0          0         
JX8060           217.59     18.81      0          0          0         
JX8066           215.13     18.97      0          0          0         
JX8070           227.9      8.20       0          0          0         
JX8093           232.48     7.49       0          0          0         
JX8119           220.16     20.70      0          0          0         
JX8163           210.92     16.78      0          0          0         
JX8206           200.5      20.20      0          0          0         
JX8342           211.33     17.07      0          0          0         
JX8343           205.88     22.32      0          0          0         
JX8344           213.68     19.52      0          0          0         
JX8354           202.25     20.55      0          0          0         
JX8355           196.32     16.18      0          0          0         
JX8379           192.25     17.03      0          0          0         
JX8405           204.34     20.65      0          0          0         
JX8433           200.87     16.00      0          0          0         
JX8436           206.4      14.60      0          0          0         
JX8440           211.86     18.60      0          0          0         
JX8462           217.85     19.13      0          0          0         
JX8463           218.67     17.79      0          0          0         
JX8464           218.67     17.95      0          0          0         
JX8465           212.47     20.63      0          0          0         
JX8496           198.63     18.87      0          0          0         
JX8500           196.38     18.72      0          0          0         
JX8501           195        17         0          0          0         
JX8502           194.92     17         0          0          0         
JX8503           194.82     17         0          0          0         
JX8510           192.46     15         0          0          0         
JX8512           202.05     19.78      0          0          0         
JX8531           197.5      16.09      0          0          0         
JX8549           188.15     10.50      0          0          0         
JX8552           197.55     16.35      0          0          0         
JX8553           203.11     9          0          0          0         
JX8554           205.21     15.19      0          0          0         
JX8762           208.58     18.92      0          0          0         
JX8763           205.56     16.44      0          0          0         
JX8764           207.18     19.32      0          0          0         
JX8952           193.75     18.77      0          0          0         
JX8955           196.97     14.36      0          0          0         
JX8956           196.91     14.29      0          0          0         
JX8959           206.03     16.47      0          0          0         
JX9038           195.75     18.25      0          0          0         
JX9044           192.89     11.80      0          0          0         
JX9045           192.1      11.80      0          0          0         
JX9047           191.36     9.22       0          0          0         
JX9129           194.4      13.25      0          0          0         
JX9130           196.88     12.60      0          0          0         
JX9145           201.82     12         0          0          0         
JX9146           198.51     12.33      0          0          0         
JX9155           202.48     9.15       0          0          0         
JX9157           204.88     8.72       0          0          0         
JX9162           209.1      8.62       0          0          0         
JX9163           211.96     8.82       0          0          0         
JX9164           213.44     9.30       0          0          0         
JX9181           214.3      9.10       0          0          0         
JX9184           203.52     11.5       0          0          0         
;WS0404 Inlet
JX9189           207.40     11.9       0          0          0         
JX9386           197.54     16.96      0          0          0         
JX9401           187.5      8.7        0          0          0         
JX9402           190.9      7.30       0          0          0         
JX9408           191.01     7.60       0          0          0         
JX9411           191.84     6.80       0          0          0         
JX9421           189.97     10.30      0          0          0         
JX9422           189.7      10.40      0          0          0         
JX9426           189.04     14.15      0          0          0         
JX9435           190.77     9.22       0          0          0         
JX9440           191.4      10.80      0          0          0         
JX9450           192.57     10.10      0          0          0         
JX9460           193.7      10.71      0          0          0         
JX9466           196.36     12.60      0          30         0         
JX9468           198.83     12.65      0          0          0         
JX9487           200.03     12.10      0          0          0         
JX9494           202.80     11.50      0          0          0         
JX9509           206.05     13.10      0          0          0         
JX9527           207.58     12.75      0          0          0         
JX9550           209.40     10.81      0          0          0         
JX9570           211.60     9.51       0          0          0         
JX9582           212.54     9.5        0          0          0         
JX9591           213.48     10.33      0          0          0         
JX9823           208.13     7.67       0          0          0         
JX9824           205.7      10.30      0          0          0         
JX9825           208.79     7.19       0          0          0         
JX9865           211.7      8.10       0          0          0         
JX9866           208.06     12.30      0          0          0         
JX9867           209.25     11.30      0          0          0         
JX9870           208.28     10.90      0          0          0         
JX9877           211.05     10.30      0          0          0         
JX9884           214.55     8.45       0          0          0         
MH1001           184.46     9.75       0          0          0         
MH1002           186.9      7.50       0          0          0         
ParkBridge       144        11         0          0          0         
RP01             186.31     10         0          0          0         
RP02             186.09     10         0          0          0         
RP03             185.69     10         0          0          0         
RP04             184.75     11         0          0          0         
RP05             184.5      11         0          0          0         
RP06             184.24     12         0          0          0         
WS0102OF         191.7      15.3       0          0          0         

[OUTFALLS]
;;Name           Elevation  Type       Stage Data       Gated    Route To        
;;-------------- ---------- ---------- ---------------- -------- ----------------
JB_OF1           142        FREE                        NO                       
JB_OF2           142        FREE                        NO                       
JB_OF3           142        FREE                        NO                       

[STORAGE]
;;Name           Elev.    MaxDepth   InitDepth  Shape      Curve Name/Params            N/A      Fevap    Psi      Ksat     IMD     
;;-------------- -------- ---------- ----------- ---------- ---------------------------- -------- --------          -------- --------
YoungsPond       142      12         5          TABULAR    YoungsPOND                   506959   0       
TJHS_Storage     194.4    2.5        0          TABULAR    TJHS_Storage                 180000   0       

[CONDUITS]
;;Name           From Node        To Node          Length     Roughness  InOffset   OutOffset  InitFlow   MaxFlow   
;;-------------- ---------------- ---------------- ---------- ---------- ---------- ---------- ---------- ----------
54650            5363             5364             64.45      0.013      0          0          0          0         
54652            5364             5366             69.57      0.013      0          0          0          0         
54654            WS0102OF         5363             60.95      0.013      0          0          0          0         
54655            5366             5369             90.66      0.013      0          0          0          0         
54697            5417             5416             43.30      0.013      0          0          0          0         
54698            5419             5417             274.01     0.013      0          0          0          0         
54703            5423             5419             79.99      0.013      0          0          0          0         
54707            5427             5423             80.64      0.013      0          0          0          0         
54713            5432             5427             179.99     0.013      0          0          0          0         
54714            5369             5432             134.35     0.013      0          0          0          0         
54732            5452             5454             108.55     0.013      0          0          0          0         
54733            5454             5455             50.94      0.013      0          0          0          0         
54737            5459             5413             36.70      0.013      0          0          0          0         
54738            5416             5459             36.72      0.013      0          0          0          0         
54748            5461             5452             48.67      0.013      0          0          0          0         
54754            5475             5461             129.11     0.013      0          0          0          0         
54755            5413             5475             94.02      0.013      0          0          0          0         
54758            5455             5476             59.85      0.013      0          0          0          0         
54760            5476             5478             143.40     0.013      0          0          0          0         
54762            5478             5482             57.53      0.013      0          0          0          0         
54763            5482             5480             86.65      0.013      0          0          0          0         
54775            5480             5492             73.16      0.013      0          0          0          0         
54776            5492             5495             51.44      0.013      0          0          0          0         
54777            5495             5496             21.13      0.013      0          0          0          0         