[TITLE]
;;Project Title/Notes

[OPTIONS]
;;Option             Value
FLOW_UNITS           LPS
INFILTRATION         HORTON
FLOW_ROUTING         DYNWAVE
LINK_OFFSETS         DEPTH
MIN_SLOPE            0
ALLOW_PONDING        YES
SKIP_STEADY_STATE    NO

IGNORE_SNOWMELT      YES
IGNORE_GROUNDWATER   YES
IGNORE_QUALITY       YES
START_DATE           01/01/2002
START_TIME           00:00:00
REPORT_START_DATE    01/01/2002
REPORT_START_TIME    00:00:00
END_DATE             01/03/2002
END_TIME             00:00:00
SWEEP_START          01/01
SWEEP_END            12/31
DRY_DAYS             5.000000
REPORT_STEP          00:05:00
WET_STEP             00:05:00
DRY_STEP             01:00:00
ROUTING_STEP         0:05:00 

INERTIAL_DAMPING     PARTIAL
NORMAL_FLOW_LIMITED  SLOPE
FORCE_MAIN_EQUATION  H-W
VARIABLE_STEP        0.00
LENGTHENING_STEP     0
MIN_SURFAREA         1.14
MAX_TRIALS           8
HEAD_TOLERANCE       0.0015
SYS_FLOW_TOL         5
LAT_FLOW_TOL         5
MINIMUM_STEP         0.5
THREADS              1

[EVAPORATION]
;;Data Source    Parameters
;;-------------- ----------------
CONSTANT         1.000000
DRY_ONLY         NO

[RAINGAGES]
;;Name           Format    Interval SCF      Source    
;;-------------- --------- ------ ------ ----------
TOL_RAIN         INTENSITY 0.500000 1.000000 TIMESERIES SUR_5YR_24HR_SCS

[SUBCATCHMENTS]
;;Name           Rain Gage        Outlet           Area     %Imperv  Width    %Slope   CurbLen  SnowPack        
;;-------------- ---------------- ---------------- -------- -------- -------- -------- -------- ----------------
DP-2-A           TOL_RAIN         POND-DP-2        14.132858 60.959743 526.310000 0.033000 0.000000                 
L10-1-A          TOL_RAIN         P-STMH-000041    6.188187 66.651612 348.260000 0.040000 0.000000                 
L10-1-B          TOL_RAIN         P-STMH-000042    2.834813 56.506586 235.720000 0.028000 0.000000                 
L3-1-A           TOL_RAIN         P-STMH-000015    8.187766 68.036980 400.610000 0.020000 0.000000                 
L3-1-B           TOL_RAIN         P-STMH-000013    4.384346 74.997566 293.130000 0.020000 0.000000                 
L3-1-C           TOL_RAIN         P-STMH-000016    8.721139 71.909208 413.440000 0.020000 0.000000                 
L3-1-D           TOL_RAIN         P-STMH-000013    7.254890 76.828238 377.090000 0.020000 0.000000                 
L3A-A            TOL_RAIN         P-STMH-000008    9.551334 47.577444 432.670000 0.033000 0.000000                 
L3A-B            TOL_RAIN         P-STMH-000002    10.721678 50.526270 458.420000 0.035000 0.000000                 
L3A-C            TOL_RAIN         P-STMH-000009    7.964825 78.449288 395.110000 0.047000 0.000000                 
L3A-D            TOL_RAIN         P-STMH-000004    7.303961 44.972753 378.360000 0.047000 0.000000                 
L3C-A            TOL_RAIN         POND-L3-C        40.411740 47.572929 889.990000 0.020000 0.000000                 
L4-1-A           TOL_RAIN         3826             22.483122 68.032311 663.830000 0.028000 0.000000                 
L4-1-B           TOL_RAIN         P-STMH-000057    5.684221 67.719799 333.780000 0.043000 0.000000                 
L4-1-C           TOL_RAIN         POND-L4-1        11.108479 64.165858 466.600000 0.032000 0.000000                 
L4-1A-A          TOL_RAIN         P-STMH-000064    14.486779 68.975668 532.870000 0.045000 0.000000                 
L4-1A-B          TOL_RAIN         P-STMH-000060    10.905200 71.950572 462.320000 0.036000 0.000000                 
L4-A             TOL_RAIN         POND-L4          25.610122 66.193238 708.490000 0.029000 0.000000                 
L6-A             TOL_RAIN         P-STMH-000019    13.069308 54.499221 506.120000 0.025000 0.000000                 
L6-A-A           TOL_RAIN         POND-L6-A        29.185849 53.618020 756.340000 0.020000 0.000000                 
L6-B             TOL_RAIN         POND-L6          10.539562 61.229789 454.520000 0.020000 0.000000                 
L6-C             TOL_RAIN         P-STMH-000017    6.727738 64.125481 363.140000 0.020000 0.000000                 
L6-D             TOL_RAIN         P-STMH-000018    9.479825 60.030808 431.050000 0.030000 0.000000                 
L6-E             TOL_RAIN         P-STMH-000021    10.064972 70.812683 444.160000 0.020000 0.000000                 
L8-A             TOL_RAIN         P-STMH-000051    13.416502 59.593556 512.810000 0.028000 0.000000                 
L8-A-A           TOL_RAIN         P-STMH-000025    11.359920 66.225289 471.860000 0.020000 0.000000                 
L8-A-B           TOL_RAIN         JCT-48           8.656059 64.239624 411.900000 0.020000 0.000000                 
L8-A-C           TOL_RAIN         P-STMH-000035    10.487599 54.285796 453.390000 0.035000 0.000000                 
L8-A-D           TOL_RAIN         P-STMH-000028    7.157778 71.048658 374.560000 0.020000 0.000000                 
L8-A-E           TOL_RAIN         P-STMH-000032    4.368643 59.196870 292.630000 0.030000 0.000000                 
L8-A-F           TOL_RAIN         P-STMH-000044    2.132446 66.866759 204.420000 0.038000 0.000000                 
L8-B             TOL_RAIN         P-STMH-000052    7.241907 65.827373 376.750000 0.022000 0.000000                 
LC1-A-A          TOL_RAIN         P-STMH-000048    8.786793 62.978898 415.000000 0.044000 0.000000                 
LC1-A-B          TOL_RAIN         4182             14.316658 44.358640 529.730000 0.020000 0.000000                 
LC1-A-C          TOL_RAIN         P-STMH-000045    6.100904 58.497248 345.800000 0.051000 0.000000                 
LC1-A-D          TOL_RAIN         P-STMH-000046    0.384343 74.997478 86.750000 0.026000 0.000000                 
LC1-A-E          TOL_RAIN         P-STMH-000046    0.881133 74.992753 131.410000 0.029000 0.000000                 
LC1-A-F          TOL_RAIN         24077            6.253531 85.932728 350.110000 0.028000 0.000000                 
LC1-A-G          TOL_RAIN         POND-LC1-A       12.882436 66.814964 502.480000 0.037000 0.000000                 

[SUBAREAS]
;;Subcatchment   N-Imperv   N-Perv     S-Imperv   S-Perv     PctZero    RouteTo    PctRouted 
;;-------------- ---------- ---------- ---------- ---------- ---------- ---------- ----------
DP-2-A           0.030000   0.300000   3.000000   8.000000   25.000000  PERVIOUS   42.301000 
L10-1-A          0.030000   0.300000   3.000000   8.000000   25.000000  PERVIOUS   42.857000 
L10-1-B          0.030000   0.300000   3.000000   8.000000   25.000000  PERVIOUS   42.857000 
L3-1-A           0.030000   0.300000   3.000000   8.000000   25.000000  PERVIOUS   33.333000 
L3-1-B           0.030000   0.300000   3.000000   8.000000   25.000000  PERVIOUS   33.333000 
L3-1-C           0.030000   0.300000   3.000000   8.000000   25.000000  PERVIOUS   31.765000 
L3-1-D           0.030000   0.300000   3.000000   8.000000   25.000000  PERVIOUS   33.333000 
L3A-A            0.030000   0.300000   3.000000   8.000000   25.000000  PERVIOUS   20.888000 
L3A-B            0.030000   0.300000   3.000000   8.000000   25.000000  PERVIOUS   19.994000 
L3A-C            0.030000   0.300000   3.000000   8.000000   25.000000  PERVIOUS   14.188000 
L3A-D            0.030000   0.300000   3.000000   8.000000   25.000000  PERVIOUS   20.271000 
L3C-A            0.030000   0.300000   3.000000   8.000000   25.000000  PERVIOUS   24.845000 
L4-1-A           0.030000   0.300000   3.000000   8.000000   25.000000  PERVIOUS   33.873000 
L4-1-B           0.030000   0.300000   3.000000   8.000000   25.000000  PERVIOUS   25.926000 
L4-1-C           0.030000   0.300000   3.000000   8.000000   25.000000  PERVIOUS   30.852000 
L4-1A-A          0.030000   0.300000   3.000000   8.000000   25.000000  PERVIOUS   37.398000 
L4-1A-B          0.030000   0.300000   3.000000   8.000000   25.000000  PERVIOUS   35.118000 
L4-A             0.030000   0.300000   3.000000   8.000000   25.000000  PERVIOUS   18.607000 
L6-A             0.030000   0.300000   3.000000   8.000000   25.000000  PERVIOUS   39.007000 
L6-A-A           0.030000   0.300000   3.000000   8.000000   25.000000  PERVIOUS   12.298000 
L6-B             0.030000   0.300000   3.000000   8.000000   25.000000  PERVIOUS   33.333000 
L6-C             0.030000   0.300000   3.000000   8.000000   25.000000  PERVIOUS   42.856000 
L6-D             0.030000   0.300000   3.000000   8.000000   25.000000  PERVIOUS   36.113000 
L6-E             0.030000   0.300000   3.000000   8.000000   25.000000  PERVIOUS   36.309000 
L8-A             0.030000   0.300000   3.000000   8.000000   25.000000  PERVIOUS   34.565000 
L8-A-A           0.030000   0.300000   3.000000   8.000000   25.000000  PERVIOUS   34.898000 
L8-A-B           0.030000   0.300000   3.000000   8.000000   25.000000  OUTLET    
L8-A-C           0.030000   0.300000   3.000000   8.000000   25.000000  PERVIOUS   42.552000 
L8-A-D           0.030000   0.300000   3.000000   8.000000   25.000000  PERVIOUS   38.200000 
L8-A-E           0.030000   0.300000   3.000000   8.000000   25.000000  PERVIOUS   41.285000 
L8-A-F           0.030000   0.300000   3.000000   8.000000   25.000000  PERVIOUS   33.333000 
L8-B             0.030000   0.300000   3.000000   8.000000   25.000000  PERVIOUS   35.809000 
LC1-A-A          0.030000   0.300000   3.000000   8.000000   25.000000  PERVIOUS   33.333000 
LC1-A-B          0.030000   0.300000   3.000000   8.000000   25.000000  PERVIOUS   33.330000 
LC1-A-C          0.030000   0.300000   3.000000   8.000000   25.000000  PERVIOUS   33.333000 
LC1-A-D          0.030000   0.300000   3.000000   8.000000   25.000000  PERVIOUS   33.333000 
LC1-A-E          0.030000   0.300000   3.000000   8.000000   25.000000  PERVIOUS   33.333000 
LC1-A-F          0.030000   0.300000   3.000000   8.000000   25.000000  PERVIOUS   33.333000 
LC1-A-G          0.030000   0.300000   3.000000   8.000000   25.000000  PERVIOUS   23.747000 

[INFILTRATION]
;;Subcatchment   MaxRate    MinRate    Decay      DryTime    MaxInfil  
;;-------------- ---------- ---------- ---------- ---------- ----------
DP-2-A           20.000000  4.000000   4.140000   5.000000   2.000000  
L10-1-A          20.000000  4.000000   4.140000   5.000000   2.000000  
L10-1-B          20.000000  4.000000   4.140000   5.000000   2.000000  
L3-1-A           20.000000  4.000000   4.140000   5.000000   2.000000  
L3-1-B           20.000000  4.000000   4.140000   5.000000   2.000000  
L3-1-C           20.000000  4.000000   4.140000   5.000000   2.000000  
L3-1-D           20.000000  4.000000   4.140000   5.000000   2.000000  
L3A-A            20.000000  4.000000   4.140000   5.000000   2.000000  
L3A-B            20.000000  4.000000   4.140000   5.000000   2.000000  
L3A-C            20.000000  4.000000   4.140000   5.000000   2.000000  
L3A-D            20.000000  4.000000   4.140000   5.000000   2.000000  
L3C-A            20.000000  4.000000   4.140000   5.000000   2.000000  
L4-1-A           20.000000  4.000000   4.140000   5.000000   2.000000  
L4-1-B           20.000000  4.000000   4.140000   5.000000   2.000000  
L4-1-C           20.000000  4.000000   4.140000   5.000000   2.000000  
L4-1A-A          20.000000  4.000000   4.140000   5.000000   2.000000  
L4-1A-B          20.000000  4.000000   4.140000   5.000000   2.000000  
L4-A             20.000000  4.000000   4.140000   5.000000   2.000000  
L6-A             20.000000  4.000000   4.140000   5.000000   2.000000  
L6-A-A           20.000000  4.000000   4.140000   5.000000   2.000000  
L6-B             20.000000  4.000000   4.140000   5.000000   2.000000  
L6-C             20.000000  4.000000   4.140000   5.000000   2.000000  
L6-D             20.000000  4.000000   4.140000   5.000000   2.000000  
L6-E             20.000000  4.000000   4.140000   5.000000   2.000000  
L8-A             20.000000  4.000000   4.140000   5.000000   2.000000  
L8-A-A           20.000000  4.000000   4.140000   5.000000   2.000000  
L8-A-B           20.000000  4.000000   4.140000   5.000000   2.000000  
L8-A-C           20.000000  4.000000   4.140000   5.000000   2.000000  
L8-A-D           20.000000  4.000000   4.140000   5.000000   2.000000  
L8-A-E           20.000000  4.000000   4.140000   5.000000   2.000000  
L8-A-F           20.000000  4.000000   4.140000   5.000000   2.000000  
L8-B             20.000000  4.000000   4.140000   5.000000   2.000000  
LC1-A-A          20.000000  4.000000   4.140000   5.000000   2.000000  
LC1-A-B          20.000000  4.000000   4.140000   5.000000   2.000000  
LC1-A-C          20.000000  4.000000   4.140000   5.000000   2.000000  
LC1-A-D          20.000000  4.000000   4.140000   5.000000   2.000000  
LC1-A-E          20.000000  4.000000   4.140000   5.000000   2.000000  
LC1-A-F          20.000000  4.000000   4.140000   5.000000   2.000000  
LC1-A-G          20.000000  4.000000   4.140000   5.000000   2.000000  

[JUNCTIONS]
;;Name           Elevation  MaxDepth   InitDepth  SurDepth   Aponded   
;;-------------- ---------- ---------- ---------- ---------- ----------
; Existing Manhole
1416             60.550000  2.860000   0.000000   0.000000   0.000000  
; Existing Manhole
1429             68.930000  1.450000   0.000000   0.000000   0.000000  
; Existing Manhole
22717            15.805000  1.665000   0.000000   0.000000   0.000000  
; Existing Manhole
22755            15.470000  2.260000   0.000000   0.000000   0.000000  
; Existing Manhole
22756            14.400000  2.290000   0.000000   0.000000   0.000000  
; Existing Node
232234           42.961000  2.369000   0.000000   0.000000   0.000000  
; Existing Node
232239           41.841000  2.539000   0.000000   0.000000   0.000000  
; Existing Node
232243           40.475000  2.295000   0.000000   0.000000   0.000000  
; Existing Node
232250           38.605000  2.025000   0.000000   0.000000   0.000000  
; Existing Node
232255           35.547000  4.013000   0.000000   0.000000   0.000000  
; Existing Node
232264           43.230000  1.450000   0.000000   0.000000   0.000000  
; Existing Node
232299           17.802000  2.958000   0.000000   0.000000   0.000000  
; Existing Node
232301           16.750000  2.750000   0.000000   0.000000   0.000000  
; Existing Node
232303           15.756000  2.744000   0.000000   0.000000   0.000000  
; Existing Node
234554           68.830000  1.450000   0.000000   0.000000   0.000000  
; Existing Node
234557           68.260000  2.160000   0.000000   0.000000   0.000000  
; Existing Node
234558           67.969000  2.101000   0.000000   0.000000   0.000000  
; Existing Node
234559           67.569000  2.051000   0.000000   0.000000   0.000000  
; Existing Node
234560           67.116000  1.824000   0.000000   0.000000   0.000000  
; Existing Node
234561           66.925000  1.045000   0.000000   0.000000   0.000000  
; Existing Node
234562           64.910000  1.750000   0.000000   0.000000   0.000000  
; Existing Node
234876           73.030000  1.450000   0.000000   0.000000   0.000000  
; Existing Manhole
24077            68.330000  2.110000   0.000000   0.000000   0.000000  
; Existing Manhole
24078            66.940000  1.470000   0.000000   0.000000   0.000000  
; Existing Manhole
24079            66.420000  1.450000   0.000000   0.000000   0.000000  
; Existing Manhole
24088            17.900000  2.560000   0.000000   0.000000   0.000000  
; Existing Manhole
24089            16.090000  2.250000   0.000000   0.000000   0.000000  
; Existing Manhole
24566            17.100000  4.400000   0.000000   0.000000   0.000000  
; Existing Manhole
2790             36.140000  1.450000   0.000000   0.000000   0.000000  
; Existing Manhole
2791             37.470000  1.450000   0.000000   0.000000   0.000000  
; Existing Manhole
2792             40.190000  1.450000   0.000000   0.000000   0.000000  
; Existing Manhole
3822             62.520000  2.140000   0.000000   0.000000   0.000000  
; Existing Manhole
3826             43.410000  1.250000   0.000000   0.000000   0.000000  
; Existing Manhole
4169             56.950000  1.710000   0.000000   0.000000   0.000000  
; Existing Manhole
4170             54.850000  1.390000   0.000000   0.000000   0.000000  
; Existing Manhole
4171             50.050000  1.830000   0.000000   0.000000   0.000000  
; Existing Manhole
4172             46.970000  1.750000   0.000000   0.000000   0.000000  
; Existing Manhole
4182             74.790000  1.450000   0.000000   0.000000   0.000000  
; Existing Manhole
4587             14.620000  2.190000   0.000000   0.000000   0.000000  
; Existing Manhole
4589             18.480000  3.810000   0.000000   0.000000   0.000000  
; Existing Manhole
4723             44.350000  2.750000   0.000000   0.000000   0.000000  
; Existing Manhole
4724             42.530000  2.120000   0.000000   0.000000   0.000000  
; Existing Manhole
4725             40.700000  2.830000   0.000000   0.000000   0.000000  
; Existing Manhole
4726             38.300000  2.040000   0.000000   0.000000   0.000000  
; Existing Manhole
4744             35.620000  4.150000   0.000000   0.000000   0.000000  
; Existing Manhole
4745             35.190000  3.410000   0.000000   0.000000   0.000000  
; Existing Manhole
4746             32.350000  3.250000   0.000000   0.000000   0.000000  
; Existing Manhole
4747             28.770000  1.390000   0.000000   0.000000   0.000000  
; Existing Node
JCT-10           28.050000  1.250000   0.000000   0.000000   0.000000  
; Existing Node
JCT-20           34.816000  3.814000   0.000000   0.000000   0.000000  
; Existing Node
JCT-24           41.690000  1.450000   0.000000   0.000000   0.000000  
; Existing Node
JCT-26           38.740000  1.450000   0.000000   0.000000   0.000000  
; Existing Node
JCT-28           36.800000  1.450000   0.000000   0.000000   0.000000  
; New Junction
JCT-48           10.000000  2.000000   0.000000   0.000000   0.000000  
; Proposed Manhole
P-STMH-000002    34.990000  1.250000   0.000000   0.000000   0.000000  
; Proposed Manhole
P-STMH-000003    34.450000  1.250000   0.000000   0.000000   0.000000  
; Proposed Manhole
P-STMH-000004    34.100000  4.340000   0.000000   0.000000   0.000000  
; Proposed Manhole
P-STMH-000008    41.670000  1.250000   0.000000   0.000000   0.000000  
; Proposed Manhole
P-STMH-000009    33.330000  1.250000   0.000000   0.000000   0.000000  
; Proposed Manhole
P-STMH-000013    21.480000  1.250000   0.000000   0.000000   0.000000  
; Proposed Manhole
P-STMH-000014    17.200000  1.250000   0.000000   0.000000   0.000000  
; Proposed Manhole
P-STMH-000015    16.450000  1.250000   0.000000   0.000000   0.000000  
; Proposed Manhole
P-STMH-000016    15.960000  1.040000   0.000000   0.000000   0.000000  
; Proposed Manhole
P-STMH-000017    94.080000  1.250000   0.000000   0.000000   0.000000  
; Proposed Manhole
P-STMH-000018    84.210000  1.250000   0.000000   0.000000   0.000000  
; Proposed Manhole
P-STMH-000019    81.250000  1.250000   0.000000   0.000000   0.000000  
; Proposed Manhole
P-STMH-000020    78.960000  1.250000   0.000000   0.000000   0.000000  
; Proposed Manhole
P-STMH-000021    74.830000  1.250000   0.000000   0.000000   0.000000  
; Proposed Manhole
P-STMH-000022    73.240000  1.250000   0.000000   0.000000   0.000000  
; Proposed Manhole
P-STMH-000025    76.100000  1.250000   0.000000   0.000000   0.000000  
; Proposed Manhole
P-STMH-000028    79.740000  1.250000   0.000000   0.000000   0.000000  
; Proposed Manhole
P-STMH-000030    74.490000  1.250000   0.000000   0.000000   0.000000  
; Proposed Manhole
P-STMH-000031    70.300000  1.250000   0.000000   0.000000   0.000000  
; Proposed Manhole
P-STMH-000032    66.750000  1.250000   0.000000   0.000000   0.000000  
; Proposed Manhole
P-STMH-000033    67.070000  1.250000   0.000000   0.000000   0.000000  
; Proposed Manhole
P-STMH-000034    67.250000  1.250000   0.000000   0.000000   0.000000  
; Proposed Manhole
P-STMH-000035    71.250000  1.250000   0.000000   0.000000   0.000000  
; Proposed Manhole
P-STMH-000036    74.150000  1.250000   0.000000   0.000000   0.000000  
; Proposed Manhole
P-STMH-000037    78.210000  1.250000   0.000000   0.000000   0.000000  
; Proposed Manhole
P-STMH-000041    55.830000  1.250000   0.000000   0.000000   0.000000  
; Proposed Manhole
P-STMH-000042    54.110000  1.250000   0.000000   0.000000   0.000000  
; Proposed Manhole
P-STMH-000043    55.490000  3.600000   0.000000   0.000000   0.000000  
; Proposed Manhole
P-STMH-000044    73.590000  1.250000   0.000000   0.000000   0.000000  
; Proposed Manhole
P-STMH-000045    57.850000  1.250000   0.000000   0.000000   0.000000  
; Proposed Manhole
P-STMH-000046    59.730000  1.250000   0.000000   0.000000   0.000000  
; Proposed Manhole
P-STMH-000047    52.490000  1.250000   0.000000   0.000000   0.000000  
; Proposed Manhole
P-STMH-000048    48.940000  1.290000   0.000000   0.000000   0.000000  
; Proposed Manhole
P-STMH-000050    55.250000  1.250000   0.000000   0.000000   0.000000  
; Proposed Manhole
P-STMH-000051    59.670000  1.250000   0.000000   0.000000   0.000000  
; Proposed Manhole
P-STMH-000052    54.130000  1.250000   0.000000   0.000000   0.000000  
; Proposed Manhole
P-STMH-000053    51.590000  1.250000   0.000000   0.000000   0.000000  
; Proposed Manhole
P-STMH-000057    48.920000  1.250000   0.000000   0.000000   0.000000  
; Proposed Manhole
P-STMH-000060    53.270000  1.250000   0.000000   0.000000   0.000000  
; Proposed Manhole
P-STMH-000064    58.250000  1.250000   0.000000   0.000000   0.000000  
; Proposed Manhole
P-STMH-000066    55.270000  1.250000   0.000000   0.000000   0.000000  
; Proposed Manhole
P-STMH-000068    48.950000  1.250000   0.000000   0.000000   0.000000  
; Proposed Manhole
P-STMH-000069    44.250000  1.250000   0.000000   0.000000   0.000000  
P-STMH-000070    65.630000  2.320000   0.000000   0.000000   0.000000  

[OUTFALLS]
;;Name           Elevation  Type       Stage Data       Gated    Route To        
;;-------------- ---------- ---------- ---------------- -------- ----------------
; New Outfall
OFALL-10         9.000000   FREE                        NO                       
OUT-DP-2         13.050000  FREE                        NO                       
OUT-L10-1        44.380000  FREE                        NO                       
OUT-L3-1         13.910000  FREE                        NO                       
OUT-L3-C         17.000000  FREE                        NO                       
OUT-L3A          29.580000  FREE                        NO                       
OUT-L4           14.160000  FREE                        NO                       
OUT-L4-1         28.310000  FREE                        NO                       
OUT-L4-1A        40.270000  FREE                        NO                       
OUT-L6           71.200000  FREE                        NO                       
OUT-L6-A         63.000000  FREE                        NO                       
OUT-LB-8         41.060000  FREE                        NO                       
OUT-LC1-A        25.150000  FREE                        NO                       

[STORAGE]
;;Name           Elev.    MaxDepth   InitDepth  Shape      Curve Name/Params            N/A      Fevap    Psi      Ksat     IMD     
;;-------------- -------- ---------- ----------- ---------- ---------------------------- -------- --------          -------- --------
POND-DP-2        13.710000 2.000000   0.000000   FUNCTIONAL 0.000000  0.000000  0.000000 10000.000000 0.000000
POND-L10-1       52.020000 2.000000   0.000000   FUNCTIONAL 0.000000  0.000000  0.000000 10000.000000 0.000000
POND-L3-1        15.870000 2.000000   0.000000   FUNCTIONAL 0.000000  0.000000  0.000000 10000.000000 0.000000
POND-L3-C        17.200000 2.000000   0.000000   FUNCTIONAL 0.000000  0.000000  0.000000 10000.000000 0.000000
POND-L3A         30.500000 2.000000   0.000000   FUNCTIONAL 0.000000  0.000000  0.000000 10000.000000 0.000000
POND-L4          18.700000 2.000000   0.000000   FUNCTIONAL 0.000000  0.000000  0.000000 10000.000000 0.000000
POND-L4-1        32.160000 2.000000   0.000000   FUNCTIONAL 0.000000  0.000000  0.000000 10000.000000 0.000000
POND-L4-1A       53.030000 2.000000   0.000000   FUNCTIONAL 0.000000  0.000000  0.000000 10000.000000 0.000000
POND-L6          73.450000 2.000000   0.000000   FUNCTIONAL 0.000000  0.000000  0.000000 10000.000000 0.000000
POND-L6-A        66.250000 2.000000   0.000000   FUNCTIONAL 0.000000  0.000000  0.000000 10000.000000 0.000000
POND-L8          51.900000 2.000000   0.000000   FUNCTIONAL 0.000000  0.000000  0.000000 10000.000000 0.000000
POND-L8-A        66.150000 2.000000   0.000000   FUNCTIONAL 0.000000  0.000000  0.000000 10000.000000 0.000000
POND-LC1-A       35.980000 2.000000   0.000000   FUNCTIONAL 0.000000  0.000000  0.000000 10000.000000 0.000000

[CONDUITS]
;;Name           From Node        To Node          Length     Roughness  InOffset   OutOffset  InitFlow   MaxFlow   
;;-------------- ---------------- ---------------- ---------- ---------- ---------- ---------- ---------- ----------
; Existing Pipe
10847            JCT-20           4746             95.408860  0.013000   0.000000   0.000000   0.000000   0.000000  
; Existing Pipe
10848            4745             JCT-20           15.591087  0.013000   0.000000   0.000000   0.000000   0.000000  
; Existing Pipe
10849            232255           4745             15.331870  0.013000   0.000000   0.190000   0.000000   0.000000  
; Existing Pipe
10850            4744             232255           6.668118   0.013000   0.000000   0.000000   0.000000   0.000000  
; Existing Pipe
11004            234876           1429             149.685396 0.013000   0.000000   0.000000   0.000000   0.000000  
; Existing Pipe
11007            234562           3822             39.607502  0.013000   0.000000   0.000000   0.000000   0.000000  
; Existing Pipe
11008            24079            234562           23.792640  0.013000   0.000000   0.300000   0.000000   0.000000  
; Existing Pipe
11009            234554           24077            93.462803  0.013000   0.000000   0.000000   0.000000   0.000000  
; Existing Pipe
11010            1429             234554           7.701697   0.013000   0.000000   0.000000   0.000000   0.000000  
; Existing Pipe
11037            JCT-24           2792             33.900360  0.013000   0.000000   0.000000   0.000000   0.000000  
; Existing Pipe
11038            232264           JCT-24           32.396875  0.013000   0.000000   0.000000   0.000000   0.000000  
; Existing Pipe
11039            JCT-26           2791             53.565411  0.013000   0.000000   0.000000   0.000000   0.000000  
; Existing Pipe
11040            2792             JCT-26           43.823698  0.013000   0.000000   0.000000   0.000000   0.000000  
; Existing Pipe
11041            JCT-28           2790             23.632786  0.013000   0.000000   0.000000   0.000000   0.000000  
; Existing Pipe
11042            2791             JCT-28           22.170301  0.013000   0.000000   0.000000   0.000000   0.000000  
; Existing Pipe
11050            232243           232250           84.964455  0.013000   0.000000   0.000000   0.000000   0.000000  
; Existing Pipe
11051            4725             232243           10.197056  0.013000   0.000000   0.000000   0.000000   0.000000  
; Existing Pipe
11052            232250           4726             13.913071  0.013000   0.000000   0.000000   0.000000   0.000000  
; Existing Pipe
11056            232239           4725             71.909846  0.013000   0.000000   0.120000   0.000000   0.000000  
; Existing Pipe
11057            4724             232239           49.688581  0.013000   0.000000   0.000000   0.000000   0.000000  
; Existing Pipe
11058            232234           4724             19.831060  0.013000   0.000000   0.080000   0.000000   0.000000  
; Existing Pipe
11059            4723             232234           83.426852  0.013000   0.000000   0.000000   0.000000   0.000000  
; Existing Pipe
130              POND-L4          4589             10.925984  0.013000   0.000000   0.000000   0.000000   0.000000  
; Existing Pipe
131              4589             24088            10.362931  0.013000   0.060000   0.300000   0.000000   0.000000  
; Existing Pipe
133              4587             OUT-L4           9.211620   0.013000   0.000000   0.000000   0.000000   0.000000  
; Existing Pipe
15210            232303           4587             50.872609  0.013000   0.000000   0.030000   0.000000   0.000000  
; Existing Pipe
15211            22717            232303           2.242340   0.013000   0.000000   0.000000   0.000000   0.000000  
; Existing Pipe
15212            24089            22717            13.099449  0.013000   0.000000   0.000000   0.000000   0.000000  
; Existing Pipe
15214            232301           24089            35.195168  0.013000   0.000000   0.000000   0.000000   0.000000  
; Existing Pipe
15215            232299           232301           56.124184  0.013000   0.000000   0.000000   0.000000   0.000000  
; Existing Pipe
15224            22755            22756            56.899906  0.013000   0.000000   0.000000   0.000000   0.000000  
; Existing Pipe
15225            22756            OUT-L3-1         5.991004   0.013000   0.000000   0.000000   0.000000   0.000000  
; Existing Pipe
16629            234560           24078            17.300620  0.013000   0.000000   0.000000   0.000000   0.000000  
; Existing Pipe
16630            234561           24079            1.999524   0.013000   0.000000   0.500000   0.000000   0.000000  
; Existing Pipe
16679            24077            234557           7.263497   0.013000   0.000000   0.000000   0.000000   0.000000  
; Existing Pipe
16680            234557           234558           30.001624  0.013000   0.000000   0.000000   0.000000   0.000000  
; Existing Pipe