[TITLE]
;;Project Title/Notes

[OPTIONS]
;;Option             Value
FLOW_UNITS           CFS
INFILTRATION         HORTON
FLOW_ROUTING         DYNWAVE
LINK_OFFSETS         DEPTH
MIN_SLOPE            0
ALLOW_PONDING        NO
SKIP_STEADY_STATE    NO

START_DATE           01/01/2004
START_TIME           00:00:00
REPORT_START_DATE    01/01/2004
REPORT_START_TIME    00:00:00
END_DATE             01/02/2004
END_TIME             03:00:00
SWEEP_START          01/01
SWEEP_END            12/31
DRY_DAYS             0.000000
REPORT_STEP          00:04:00
WET_STEP             00:01:00
DRY_STEP             00:01:00
ROUTING_STEP         0:00:10 

INERTIAL_DAMPING     NONE
NORMAL_FLOW_LIMITED  BOTH
FORCE_MAIN_EQUATION  H-W
VARIABLE_STEP        0.75
LENGTHENING_STEP     1
MIN_SURFAREA         0
MAX_TRIALS           0
HEAD_TOLERANCE       0
SYS_FLOW_TOL         5
LAT_FLOW_TOL         5
MINIMUM_STEP         0.5
THREADS              1

[EVAPORATION]
;;Data Source    Parameters
;;-------------- ----------------
CONSTANT         0.000000
DRY_ONLY         NO

[RAINGAGES]
;;Name           Format    Interval SCF      Source    
;;-------------- --------- ------ ------ ----------
SCS~TYPE~II      CUMULATIVE 0.489720 1.000000 TIMESERIES RN#1            

[SUBCATCHMENTS]
;;Name           Rain Gage        Outlet           Area     %Imperv  Width    %Slope   CurbLen  SnowPack        
;;-------------- ---------------- ---------------- -------- -------- -------- -------- -------- ----------------
S004400#1        SCS~TYPE~II      S004400          18.590000 0.000000 434.000000 50.000000 0.000000                 
S004400#2        SCS~TYPE~II      S004400          25.940000 0.000000 467.000000 30.000000 0.000000                 
S004401#1        SCS~TYPE~II      S004401          110.120000 0.000000 1416.000000 40.000000 0.000000                 
S004403#1        SCS~TYPE~II      S004403          31.320000 0.000000 748.000000 30.000000 0.000000                 
S004405#1        SCS~TYPE~II      S004405          25.540000 0.000000 745.000000 180.000000 0.000000                 
S005016#1        SCS~TYPE~II      S005016          4.220000 0.000000 566.000000 70.000000 0.000000                 
S005036#1        SCS~TYPE~II      S005036          19.440000 0.000000 547.000000 30.000000 0.000000                 
S005038A#1       SCS~TYPE~II      S005038A         7.190000 0.000000 581.000000 90.000000 0.000000                 
S005045#1        SCS~TYPE~II      S005045          6.660000 0.000000 181.000000 10.000000 0.000000                 
S005046#1        SCS~TYPE~II      S005046          8.390000 0.000000 236.000000 40.000000 0.000000                 
S005051#1        SCS~TYPE~II      S005051          2.260000 0.000000 404.000000 30.000000 0.000000                 
S005056#1        SCS~TYPE~II      S005056          1.030000 0.000000 106.000000 30.000000 0.000000                 
S005060#1        SCS~TYPE~II      S005060          4.680000 0.000000 546.000000 50.000000 0.000000                 
S005065#1        SCS~TYPE~II      S005065          10.200000 0.000000 320.000000 10.000000 0.000000                 
S005079#1        SCS~TYPE~II      S005079          7.070000 0.000000 471.000000 30.000000 0.000000                 
S005082#1        SCS~TYPE~II      S005082          6.460000 0.000000 671.000000 30.000000 0.000000                 
S005102#1        SCS~TYPE~II      S005102          9.320000 0.000000 407.000000 30.000000 0.000000                 
S005401#1        SCS~TYPE~II      S005401          45.400000 0.000000 1288.000000 40.000000 0.000000                 
S005403#1        SCS~TYPE~II      S005403          13.820000 0.000000 378.000000 30.000000 0.000000                 
S005404#1        SCS~TYPE~II      S005404          6.960000 0.000000 414.000000 30.000000 0.000000                 
S005404#2        SCS~TYPE~II      S005404          7.750000 0.000000 181.000000 30.000000 0.000000                 
S005408#1        SCS~TYPE~II      S005408          5.620000 0.000000 429.000000 100.000000 0.000000                 
S005408#2        SCS~TYPE~II      S005408          4.070000 0.000000 299.000000 26.600000 0.000000                 
S005409#1        SCS~TYPE~II      S005409          4.520000 0.000000 366.000000 60.000000 0.000000                 
S005409#2        SCS~TYPE~II      S005409          18.330000 0.000000 520.000000 30.000000 0.000000                 
S005410#1        SCS~TYPE~II      S005410          10.220000 0.000000 575.000000 60.000000 0.000000                 
S005411#1        SCS~TYPE~II      S005411          28.450000 0.000000 1180.000000 60.000000 0.000000                 
S005413#1        SCS~TYPE~II      S005413          12.240000 0.000000 656.000000 90.000000 0.000000                 
S005413#2        SCS~TYPE~II      S005413          16.800000 0.000000 434.000000 32.600000 0.000000                 
S005418#1        SCS~TYPE~II      S005418          5.160000 0.000000 324.000000 30.000000 0.000000                 
S005424#1        SCS~TYPE~II      S005424          12.880000 0.000000 592.000000 230.000000 0.000000                 
S005426#1        SCS~TYPE~II      S005426          7.650000 0.000000 321.000000 70.000000 0.000000                 
S005428#1        SCS~TYPE~II      S005428          3.480000 0.000000 1067.000000 470.000000 0.000000                 
S005432#1        SCS~TYPE~II      S005432          2.500000 0.000000 777.000000 180.000000 0.000000                 
S005436#1        SCS~TYPE~II      S005436          7.720000 0.000000 1340.000000 380.000000 0.000000                 
S005436#2        SCS~TYPE~II      S005436          45.830000 65.300000 896.000000 22.400000 0.000000                 
S005436#3        SCS~TYPE~II      S005436          17.870000 75.800000 649.000000 77.400000 0.000000                 
S005438#1        SCS~TYPE~II      S005438          11.750000 0.000000 269.000000 30.000000 0.000000                 
S005440#1        SCS~TYPE~II      S005440          10.040000 0.000000 350.000000 150.000000 0.000000                 
S005441#1        SCS~TYPE~II      S005441          3.870000 0.000000 497.000000 70.000000 0.000000                 
S005442#1        SCS~TYPE~II      S005442          1.620000 0.000000 196.000000 50.000000 0.000000                 
S005452#1        SCS~TYPE~II      S005452          28.530000 0.000000 837.000000 60.000000 0.000000                 
S005455#1        SCS~TYPE~II      S005455          16.740000 0.000000 317.000000 140.000000 0.000000                 
S005456#1        SCS~TYPE~II      S005456          9.940000 0.000000 380.000000 40.000000 0.000000                 
S005467#1        SCS~TYPE~II      S005467          7.160000 0.000000 355.000000 190.000000 0.000000                 
S005468#1        SCS~TYPE~II      S005468          1.710000 0.000000 147.000000 110.000000 0.000000                 
S006009#1        SCS~TYPE~II      S006009          2.320000 0.000000 300.000000 30.000000 0.000000                 
S006057#1        SCS~TYPE~II      S006057          16.450000 0.000000 886.000000 40.000000 0.000000                 
S006058#1        SCS~TYPE~II      S006058          20.480000 0.000000 576.000000 30.000000 0.000000                 
S006107#1        SCS~TYPE~II      S006107          1.220000 0.000000 141.000000 30.000000 0.000000                 
S006107#2        SCS~TYPE~II      S006107          3.640000 0.000000 215.000000 0.300000 0.000000                 
S006119#1        SCS~TYPE~II      S006119          11.800000 0.000000 317.000000 30.000000 0.000000                 
S006403#1        SCS~TYPE~II      S006403          14.130000 0.000000 1142.000000 40.000000 0.000000                 
S006405#1        SCS~TYPE~II      S006405          7.720000 0.000000 478.000000 30.000000 0.000000                 
S006408#1        SCS~TYPE~II      S006408          14.360000 0.000000 618.000000 30.000000 0.000000                 
S006409#1        SCS~TYPE~II      S006409          12.800000 0.000000 489.000000 40.000000 0.000000                 
S006412#1        SCS~TYPE~II      S006412          16.170000 0.000000 774.000000 30.000000 0.000000                 
S006413#1        SCS~TYPE~II      S006413          13.510000 0.000000 708.000000 30.000000 0.000000                 
S006415#1        SCS~TYPE~II      S006415          45.260000 0.000000 978.000000 30.000000 0.000000                 
S006416#1        SCS~TYPE~II      S006416          10.540000 0.000000 391.000000 30.000000 0.000000                 
S006421#1        SCS~TYPE~II      S006421          28.890000 0.000000 633.000000 30.000000 0.000000                 
S006423#1        SCS~TYPE~II      S006423          11.750000 0.000000 472.000000 30.000000 0.000000                 
S006426#1        SCS~TYPE~II      S006426          28.370000 0.000000 697.000000 30.000000 0.000000                 
S006427#1        SCS~TYPE~II      S006427          13.900000 0.000000 586.000000 30.000000 0.000000                 
S006428#1        SCS~TYPE~II      S006428          8.750000 0.000000 466.000000 30.000000 0.000000                 
S006429#1        SCS~TYPE~II      S006429          11.520000 0.000000 660.000000 30.000000 0.000000                 
S006430#1        SCS~TYPE~II      S006430          16.210000 0.000000 631.000000 30.000000 0.000000                 
S006431#1        SCS~TYPE~II      S006431          8.120000 0.000000 478.000000 30.000000 0.000000                 
S006432#1        SCS~TYPE~II      S006432          2.020000 0.000000 296.000000 30.000000 0.000000                 
S006434#1        SCS~TYPE~II      S006434          3.560000 0.000000 272.000000 30.000000 0.000000                 
S006434#2        SCS~TYPE~II      S006434          42.040000 0.000000 772.000000 30.000000 0.000000                 
S006445#1        SCS~TYPE~II      S006445          8.060000 0.000000 638.000000 30.000000 0.000000                 
S006446#1        SCS~TYPE~II      S006446          27.910000 0.000000 1811.000000 40.000000 0.000000                 
S006447#1        SCS~TYPE~II      S006447          5.620000 0.000000 361.000000 320.000000 0.000000                 
S006449#1        SCS~TYPE~II      S006449          0.960000 0.000000 69.000000 60.000000 0.000000                 
S006450#1        SCS~TYPE~II      S006450          10.090000 0.000000 238.000000 30.000000 0.000000                 
S006452#1        SCS~TYPE~II      S006452          5.240000 0.000000 283.000000 220.000000 0.000000                 
S006453#1        SCS~TYPE~II      S006453          7.790000 0.000000 232.000000 30.000000 0.000000                 
S006456#1        SCS~TYPE~II      S006456          16.180000 0.000000 915.000000 220.000000 0.000000                 
S006457#1        SCS~TYPE~II      S006457          6.300000 0.000000 346.000000 10.000000 0.000000                 
S006460#1        SCS~TYPE~II      S006460          6.200000 0.000000 344.000000 40.000000 0.000000                 
S006467#1        SCS~TYPE~II      S006467          3.010000 0.000000 265.000000 190.000000 0.000000                 
S006471#1        SCS~TYPE~II      S006471          4.740000 0.000000 245.000000 260.000000 0.000000                 
S006471#2        SCS~TYPE~II      S006471          2.850000 0.000000 174.000000 90.000000 0.000000                 
S007400#1        SCS~TYPE~II      S007400          21.190000 0.000000 716.000000 30.000000 0.000000                 
S009059#1        SCS~TYPE~II      S009059          37.090000 0.000000 861.000000 30.000000 0.000000                 
S009063#1        SCS~TYPE~II      S009063          9.230000 0.000000 299.000000 30.000000 0.000000                 
S009400#1        SCS~TYPE~II      S009400          40.260000 0.000000 938.000000 30.000000 0.000000                 
S010004#1        SCS~TYPE~II      S010004          8.980000 0.000000 304.000000 30.000000 0.000000                 
S010029#1        SCS~TYPE~II      S010029          6.470000 0.000000 301.000000 60.000000 0.000000                 
S010036#1        SCS~TYPE~II      S010036          19.150000 0.000000 893.000000 30.000000 0.000000                 
S010051#1        SCS~TYPE~II      S010051          11.580000 0.000000 378.000000 30.000000 0.000000                 
S010075#1        SCS~TYPE~II      S010075          3.180000 0.000000 204.000000 30.000000 0.000000                 
S010400#1        SCS~TYPE~II      S010400          2.780000 0.000000 171.000000 30.000000 0.000000                 
S010401#1        SCS~TYPE~II      S010401          4.980000 0.000000 298.000000 30.000000 0.000000                 
S010403#1        SCS~TYPE~II      S010403          3.690000 0.000000 251.000000 30.000000 0.000000                 
S010405#1        SCS~TYPE~II      S010405          5.030000 0.000000 420.000000 30.000000 0.000000                 
S010406#1        SCS~TYPE~II      S010406          9.660000 0.000000 394.000000 30.000000 0.000000                 
S010408#1        SCS~TYPE~II      S010408          6.700000 0.000000 364.000000 30.000000 0.000000                 
S010411#1        SCS~TYPE~II      S010411          14.770000 0.000000 987.000000 130.000000 0.000000                 
S010412#1        SCS~TYPE~II      S010412          10.530000 0.000000 400.000000 30.000000 0.000000                 
S010415#1        SCS~TYPE~II      S010415          94.510000 0.000000 725.000000 30.000000 0.000000                 
S010418#1        SCS~TYPE~II      S010418          21.360000 0.000000 988.000000 30.000000 0.000000                 
S011004#1        SCS~TYPE~II      S011004          1.970000 0.000000 194.000000 50.000000 0.000000                 
S011015#1        SCS~TYPE~II      S011015          20.430000 0.000000 636.000000 30.000000 0.000000                 
S011060#1        SCS~TYPE~II      S011060          1.890000 0.000000 160.000000 30.000000 0.000000                 
S011065#1        SCS~TYPE~II      S011065          1.880000 0.000000 130.000000 60.000000 0.000000                 
S011400#1        SCS~TYPE~II      S011400          143.950000 0.000000 908.000000 30.000000 0.000000                 
S011402#1        SCS~TYPE~II      S011402          23.030000 0.000000 848.000000 30.000000 0.000000                 
S011403#1        SCS~TYPE~II      S011403          36.290000 0.000000 1020.000000 340.000000 0.000000                 
S011405#1        SCS~TYPE~II      S011405          5.360000 0.000000 406.000000 90.000000 0.000000                 
S011407#1        SCS~TYPE~II      S011407          245.788000 0.000000 1957.000000 0.160000 0.000000                 
S011411#1        SCS~TYPE~II      S011411          14.780000 0.000000 608.000000 80.000000 0.000000                 
S011413#1        SCS~TYPE~II      S011413          2.070000 0.000000 177.000000 30.000000 0.000000                 
S011414#1        SCS~TYPE~II      S011414          0.630000 0.000000 139.000000 330.000000 0.000000                 
S011417#1        SCS~TYPE~II      S011417          7.800000 0.000000 167.000000 30.000000 0.000000                 
S011423#1        SCS~TYPE~II      S011423          22.170000 0.000000 598.000000 130.000000 0.000000                 
S011424#1        SCS~TYPE~II      S011424          15.880000 0.000000 589.000000 50.000000 0.000000                 
S011426#1        SCS~TYPE~II      S011426          1.510000 0.000000 274.000000 260.000000 0.000000                 
S011429#1        SCS~TYPE~II      S011429          8.720000 0.000000 570.000000 0.000000 0.000000                 
S011430#1        SCS~TYPE~II      S011430          7.100000 0.000000 292.000000 80.000000 0.000000                 
S011433#1        SCS~TYPE~II      S011433          1.890000 0.000000 206.000000 50.000000 0.000000                 
S011435#1        SCS~TYPE~II      S011435          4.180000 0.000000 157.000000 40.000000 0.000000                 
S011437#1        SCS~TYPE~II      S011437          15.050000 0.000000 477.000000 20.000000 0.000000                 
S011441#1        SCS~TYPE~II      S011441          4.640000 0.000000 325.000000 50.000000 0.000000                 
S012036#1        SCS~TYPE~II      S012036          12.950000 0.000000 740.000000 40.000000 0.000000                 
S012043#1        SCS~TYPE~II      S012043          11.170000 0.000000 677.000000 30.000000 0.000000                 
S012400#1        SCS~TYPE~II      S012400          30.640000 0.000000 3331.000000 210.000000 0.000000                 
S012401#1        SCS~TYPE~II      S012401          41.590000 0.000000 639.000000 90.000000 0.000000                 
S012402#1        SCS~TYPE~II      S012402          27.740000 0.000000 494.000000 80.000000 0.000000                 
S012403#1        SCS~TYPE~II      S012403          33.740000 0.000000 872.000000 30.000000 0.000000                 
S012404#1        SCS~TYPE~II      S012404          15.560000 0.000000 1632.000000 50.000000 0.000000                 
S012405#1        SCS~TYPE~II      S012405          22.410000 0.000000 791.000000 190.000000 0.000000                 
S012406#1        SCS~TYPE~II      S012406          5.190000 0.000000 267.000000 30.000000 0.000000                 
S012407#1        SCS~TYPE~II      S012407          14.020000 0.000000 477.000000 30.000000 0.000000                 
S012408#1        SCS~TYPE~II      S012408          36.790000 0.000000 843.000000 30.000000 0.000000                 
S012409#1        SCS~TYPE~II      S012409          116.770000 0.000000 999.000000 30.000000 0.000000                 
S012412#1        SCS~TYPE~II      S012412          3.870000 0.000000 563.000000 100.000000 0.000000                 
S012415#1        SCS~TYPE~II      S012415          14.300000 0.000000 296.000000 30.000000 0.000000                 
S012415#2        SCS~TYPE~II      S012415          14.750000 0.000000 786.000000 180.000000 0.000000                 
S012419#1        SCS~TYPE~II      S012419          4.690000 0.000000 199.000000 30.000000 0.000000                 
S012420#1        SCS~TYPE~II      S012420          132.240000 0.000000 1314.000000 40.000000 0.000000                 
S012421#1        SCS~TYPE~II      S012421          1.940000 0.000000 142.000000 30.000000 0.000000                 
S012436#1        SCS~TYPE~II      S012436          16.900000 0.000000 379.000000 30.000000 0.000000                 
S012441#1        SCS~TYPE~II      S012441          11.610000 0.000000 495.000000 150.000000 0.000000                 
S012445#1        SCS~TYPE~II      S012445          5.420000 0.000000 260.000000 30.000000 0.000000                 
S012446#1        SCS~TYPE~II      S012446          8.210000 0.000000 383.000000 30.000000 0.000000                 
S013405#1        SCS~TYPE~II      S013405          31.230000 60.000000 694.000000 100.000000 0.000000                 
S013411#1        SCS~TYPE~II      S013411          62.670000 0.000000 1226.000000 30.000000 0.000000                 
S024019#1        SCS~TYPE~II      S024019          3.630000 0.000000 267.000000 540.000000 0.000000                 
S024030A#1       SCS~TYPE~II      S024030A         4.300000 0.000000 330.000000 820.000000 0.000000                 
S024042#1        SCS~TYPE~II      S024042          3.150000 0.000000 177.000000 360.000000 0.000000                 
S024065B#1       SCS~TYPE~II      S024065B         0.510000 0.000000 85.000000 510.000000 0.000000                 
S024081#1        SCS~TYPE~II      S024081          6.990000 0.000000 448.000000 410.000000 0.000000                 
S024400#1        SCS~TYPE~II      S024400          18.760000 0.000000 486.000000 270.000000 0.000000                 
S024408#1        SCS~TYPE~II      S024408          41.410000 0.000000 710.000000 50.000000 0.000000                 
S024419#1        SCS~TYPE~II      S024419          51.870000 0.000000 762.000000 30.000000 0.000000                 
S024422#1        SCS~TYPE~II      S024422          4.780000 0.000000 204.000000 450.000000 0.000000                 
S024427#1        SCS~TYPE~II      S024427          11.970000 0.000000 375.000000 220.000000 0.000000                 
S024432#1        SCS~TYPE~II      S024432          4.740000 0.000000 315.000000 340.000000 0.000000                 
S024438#1        SCS~TYPE~II      S024438          7.160000 0.000000 333.000000 380.000000 0.000000                 
S024449#1        SCS~TYPE~II      S024449          10.080000 0.000000 684.000000 650.000000 0.000000                 
S024457#1        SCS~TYPE~II      S024457          2.430000 0.000000 205.000000 620.000000 0.000000                 
S024459#1        SCS~TYPE~II      S024459          4.790000 0.000000 286.000000 410.000000 0.000000                 
S024463#1        SCS~TYPE~II      S024463          0.580000 0.000000 74.000000 270.000000 0.000000                 
S024468#1        SCS~TYPE~II      S024468          4.260000 0.000000 301.000000 490.000000 0.000000                 
S024470#1        SCS~TYPE~II      S024470          2.770000 0.000000 165.000000 630.000000 0.000000                 
S024479#1        SCS~TYPE~II      S024479          2.810000 0.000000 209.000000 410.000000 0.000000                 
S024484#1        SCS~TYPE~II      S024484          2.080000 0.000000 106.000000 880.000000 0.000000                 
S024485#1        SCS~TYPE~II      S024485          2.790000 0.000000 118.000000 570.000000 0.000000                 
S024488#1        SCS~TYPE~II      S024488          9.040000 0.000000 442.000000 30.000000 0.000000                 
S024497#1        SCS~TYPE~II      S024497          9.370000 0.000000 304.000000 10.000000 0.000000                 
S024498#1        SCS~TYPE~II      S024498          7.810000 0.000000 469.000000 30.000000 0.000000                 
S025002D#1       SCS~TYPE~II      S025002D         1.470000 0.000000 96.000000 360.000000 0.000000                 
S025401#1        SCS~TYPE~II      S025401          1.720000 0.000000 179.000000 680.000000 0.000000                 
S025402#1        SCS~TYPE~II      S025402          5.450000 0.000000 295.000000 430.000000 0.000000                 
S025406#1        SCS~TYPE~II      S025406          1.680000 0.000000 108.000000 350.000000 0.000000                 
S025407#1        SCS~TYPE~II      S025407          1.850000 0.000000 175.000000 420.000000 0.000000                 
S025410#1        SCS~TYPE~II      S025410          2.320000 0.000000 235.000000 570.000000 0.000000                 
S025411#1        SCS~TYPE~II      S025411          0.440000 0.000000 89.000000 290.000000 0.000000                 
S025418#1        SCS~TYPE~II      S025418          3.540000 0.000000 267.000000 240.000000 0.000000                 
S025420#1        SCS~TYPE~II      S025420          0.640000 0.000000 90.000000 30.000000 0.000000                 
S025421#1        SCS~TYPE~II      S025421          0.660000 0.000000 95.000000 400.000000 0.000000                 
S025423#1        SCS~TYPE~II      S025423          10.420000 0.000000 813.000000 10.000000 0.000000                 
S025423#2        SCS~TYPE~II      S025423          41.740000 0.000000 1046.000000 31.200000 0.000000                 

[SUBAREAS]
;;Subcatchment   N-Imperv   N-Perv     S-Imperv   S-Perv     PctZero    RouteTo    PctRouted 
;;-------------- ---------- ---------- ---------- ---------- ---------- ---------- ----------
S004400#1        0.010000   0.100000   0.050000   0.050000   25.000000  OUTLET    
S004400#2        0.010000   0.100000   0.050000   0.050000   25.000000  OUTLET    
S004401#1        0.010000   0.100000   0.050000   0.050000   25.000000  OUTLET    
S004403#1        0.010000   0.100000   0.050000   0.050000   25.000000  OUTLET    
S004405#1        0.010000   0.100000   0.050000   0.050000   25.000000  OUTLET    
S005016#1        0.010000   0.100000   0.050000   0.050000   25.000000  OUTLET    
S005036#1        0.010000   0.100000   0.050000   0.050000   25.000000  OUTLET    
S005038A#1       0.010000   0.100000   0.050000   0.050000   25.000000  OUTLET    
S005045#1        0.010000   0.100000   0.050000   0.050000   25.000000  OUTLET    
S005046#1        0.010000   0.100000   0.050000   0.050000   25.000000  OUTLET    
S005051#1        0.010000   0.100000   0.050000   0.050000   25.000000  OUTLET    
S005056#1        0.010000   0.100000   0.050000   0.050000   25.000000  OUTLET    
S005060#1        0.010000   0.100000   0.050000   0.050000   25.000000  OUTLET    
S005065#1        0.010000   0.100000   0.050000   0.050000   25.000000  OUTLET    
S005079#1        0.010000   0.100000   0.050000   0.050000   25.000000  OUTLET    
S005082#1        0.010000   0.100000   0.050000   0.050000   25.000000  OUTLET    
S005102#1        0.010000   0.100000   0.050000   0.050000   25.000000  OUTLET    
S005401#1        0.010000   0.100000   0.050000   0.050000   25.000000  OUTLET    
S005403#1        0.010000   0.100000   0.050000   0.050000   25.000000  OUTLET    
S005404#1        0.010000   0.100000   0.050000   0.050000   25.000000  OUTLET    
S005404#2        0.010000   0.100000   0.050000   0.050000   25.000000  OUTLET    
S005408#1        0.010000   0.100000   0.050000   0.050000   25.000000  OUTLET    
S005408#2        0.010000   0.100000   0.050000   0.050000   25.000000  OUTLET    
S005409#1        0.010000   0.100000   0.050000   0.050000   25.000000  OUTLET    
S005409#2        0.010000   0.100000   0.050000   0.050000   25.000000  OUTLET    
S005410#1        0.010000   0.100000   0.050000   0.050000   25.000000  OUTLET    
S005411#1        0.010000   0.100000   0.050000   0.050000   25.000000  OUTLET    
S005413#1        0.010000   0.100000   0.050000   0.050000   25.000000  OUTLET    
S005413#2        0.010000   0.100000   0.050000   0.050000   25.000000  OUTLET    
S005418#1        0.010000   0.100000   0.050000   0.050000   25.000000  OUTLET    
S005424#1        0.010000   0.100000   0.050000   0.050000   25.000000  OUTLET    
S005426#1        0.010000   0.100000   0.050000   0.050000   25.000000  OUTLET    
S005428#1        0.010000   0.100000   0.050000   0.050000   25.000000  OUTLET    
S005432#1        0.010000   0.100000   0.050000   0.050000   25.000000  OUTLET    
S005436#1        0.010000   0.100000   0.050000   0.050000   25.000000  OUTLET    
S005436#2        0.010000   0.100000   0.050000   0.050000   25.000000  OUTLET    
S005436#3        0.010000   0.100000   0.050000   0.050000   25.000000  OUTLET    
S005438#1        0.010000   0.100000   0.050000   0.050000   25.000000  OUTLET    
S005440#1        0.010000   0.100000   0.050000   0.050000   25.000000  OUTLET    
S005441#1        0.010000   0.100000   0.050000   0.050000   25.000000  OUTLET    
S005442#1        0.010000   0.100000   0.050000   0.050000   25.000000  OUTLET    
S005452#1        0.010000   0.100000   0.050000   0.050000   25.000000  OUTLET    
S005455#1        0.010000   0.100000   0.050000   0.050000   25.000000  OUTLET    
S005456#1        0.010000   0.100000   0.050000   0.050000   25.000000  OUTLET    
S005467#1        0.010000   0.100000   0.050000   0.050000   25.000000  OUTLET    
S005468#1        0.010000   0.100000   0.050000   0.050000   25.000000  OUTLET    
S006009#1        0.010000   0.100000   0.050000   0.050000   25.000000  OUTLET    
S006057#1        0.010000   0.100000   0.050000   0.050000   25.000000  OUTLET    
S006058#1        0.010000   0.100000   0.050000   0.050000   25.000000  OUTLET    
S006107#1        0.010000   0.100000   0.050000   0.050000   25.000000  OUTLET    
S006107#2        0.010000   0.100000   0.050000   0.050000   25.000000  OUTLET    
S006119#1        0.010000   0.100000   0.050000   0.050000   25.000000  OUTLET    
S006403#1        0.010000   0.100000   0.050000   0.050000   25.000000  OUTLET    
S006405#1        0.010000   0.100000   0.050000   0.050000   25.000000  OUTLET    
S006408#1        0.010000   0.100000   0.050000   0.050000   25.000000  OUTLET    
S006409#1        0.010000   0.100000   0.050000   0.050000   25.000000  OUTLET    
S006412#1        0.010000   0.100000   0.050000   0.050000   25.000000  OUTLET    
S006413#1        0.010000   0.100000   0.050000   0.050000   25.000000  OUTLET    
S006415#1        0.010000   0.100000   0.050000   0.050000   25.000000  OUTLET    
S006416#1        0.010000   0.100000   0.050000   0.050000   25.000000  OUTLET    
S006421#1        0.010000   0.100000   0.050000   0.050000   25.000000  OUTLET    
S006423#1        0.010000   0.100000   0.050000   0.050000   25.000000  OUTLET    
S006426#1        0.010000   0.100000   0.050000   0.050000   25.000000  OUTLET    
S006427#1        0.010000   0.100000   0.050000   0.050000   25.000000  OUTLET    
S006428#1        0.010000   0.100000   0.050000   0.050000   25.000000  OUTLET    
S006429#1        0.010000   0.100000   0.050000   0.050000   25.000000  OUTLET    
S006430#1        0.010000   0.100000   0.050000   0.050000   25.000000  OUTLET    
S006431#1        0.010000   0.100000   0.050000   0.050000   25.000000  OUTLET    
S006432#1        0.010000   0.100000   0.050000   0.050000   25.000000  OUTLET    
S006434#1        0.010000   0.100000   0.050000   0.050000   25.000000  OUTLET    
S006434#2        0.010000   0.100000   0.050000   0.050000   25.000000  OUTLET    
S006445#1        0.010000   0.100000   0.050000   0.050000   25.000000  OUTLET    
S006446#1        0.010000   0.100000   0.050000   0.050000   25.000000  OUTLET    
S006447#1        0.010000   0.100000   0.050000   0.050000   25.000000  OUTLET    
S006449#1        0.010000   0.100000   0.050000   0.050000   25.000000  OUTLET    
S006450#1        0.010000   0.100000   0.050000   0.050000   25.000000  OUTLET    
S006452#1        0.010000   0.100000   0.050000   0.050000   25.000000  OUTLET    
S006453#1        0.010000   0.100000   0.050000   0.050000   25.000000  OUTLET    
S006456#1        0.010000   0.100000   0.050000   0.050000   25.000000  OUTLET    
S006457#1        0.010000   0.100000   0.050000   0.050000   25.000000  OUTLET    