[TITLE]
;;Project Title/Notes

[OPTIONS]
;;Option             Value
FLOW_UNITS           CMS
INFILTRATION         CURVE_NUMBER
FLOW_ROUTING         DYNWAVE
LINK_OFFSETS         DEPTH
MIN_SLOPE            0
ALLOW_PONDING        NO
SKIP_STEADY_STATE    NO

START_DATE           08/05/2011
START_TIME           00:00:00
REPORT_START_DATE    08/05/2011
REPORT_START_TIME    00:00:00
END_DATE             08/07/2011
END_TIME             00:00:00
SWEEP_START          01/01
SWEEP_END            12/31
DRY_DAYS             0.000000
REPORT_STEP          00:05:00
WET_STEP             00:05:00
DRY_STEP             00:05:00
ROUTING_STEP         0:00:05 

INERTIAL_DAMPING     PARTIAL
NORMAL_FLOW_LIMITED  BOTH
FORCE_MAIN_EQUATION  H-W
VARIABLE_STEP        0.75
LENGTHENING_STEP     0
MIN_SURFAREA         0
MAX_TRIALS           0
HEAD_TOLERANCE       0
SYS_FLOW_TOL         5
LAT_FLOW_TOL         5
MINIMUM_STEP         0.5
THREADS              1

[EVAPORATION]
;;Data Source    Parameters
;;-------------- ----------------
CONSTANT         0.000000
DRY_ONLY         NO

[RAINGAGES]
;;Name           Format    Interval SCF      Source    
;;-------------- --------- ------ ------ ----------
RAINGAGE         CUMULATIVE 0.166667 1.000000 TIMESERIES TIMESERI-5      

[SUBCATCHMENTS]
;;Name           Rain Gage        Outlet           Area     %Imperv  Width    %Slope   CurbLen  SnowPack        
;;-------------- ---------------- ---------------- -------- -------- -------- -------- -------- ----------------
1                RAINGAGE         AS-DKN9          15.216000 0.000000 835.000000 2.000000 0.000000                 
10               RAINGAGE         AS-DKN1          15.644000 0.000000 730.000000 2.000000 0.000000                 
11               RAINGAGE         AS-AG14          0.930000 0.000000 326.000000 2.000000 0.000000                 
12               RAINGAGE         AS-AG12          2.241200 0.000000 411.000000 2.000000 0.000000                 
13               RAINGAGE         AS-AG11          4.516500 0.000000 872.000000 2.000000 0.000000                 
14               RAINGAGE         AS-AG10          3.040200 0.000000 785.000000 2.000000 0.000000                 
15               RAINGAGE         AS-AG9           0.749600 0.000000 430.000000 2.000000 0.000000                 
16               RAINGAGE         AS-AG8           3.236200 0.000000 654.000000 2.000000 0.000000                 
17               RAINGAGE         AS-AG7           1.568300 0.000000 335.000000 2.000000 0.000000                 
18               RAINGAGE         AS-AG6           1.497900 0.000000 294.000000 2.000000 0.000000                 
2                RAINGAGE         AS-DKN9          4.212000 0.000000 520.000000 2.000000 0.000000                 
3                RAINGAGE         AS-DKN8          15.428000 0.000000 903.000000 2.000000 0.000000                 
4                RAINGAGE         AS-DKN7          3.667000 0.000000 356.000000 2.000000 0.000000                 
5                RAINGAGE         AS-DKN6          5.580000 0.000000 721.000000 2.000000 0.000000                 
6                RAINGAGE         AS-DKN5          3.917400 0.000000 432.000000 2.000000 0.000000                 
7                RAINGAGE         AS-DKN4          4.214500 0.000000 540.000000 2.000000 0.000000                 
8                RAINGAGE         AS-DKN3          2.665400 0.000000 966.000000 2.000000 0.000000                 

[SUBAREAS]
;;Subcatchment   N-Imperv   N-Perv     S-Imperv   S-Perv     PctZero    RouteTo    PctRouted 
;;-------------- ---------- ---------- ---------- ---------- ---------- ---------- ----------
1                0.000000   0.000000   0.000000   0.000000   0.000000   OUTLET    
10               0.000000   0.000000   0.000000   0.000000   0.000000   OUTLET    
11               0.000000   0.000000   0.000000   0.000000   0.000000   OUTLET    
12               0.000000   0.000000   0.000000   0.000000   0.000000   OUTLET    
13               0.000000   0.000000   0.000000   0.000000   0.000000   OUTLET    
14               0.000000   0.000000   0.000000   0.000000   0.000000   OUTLET    
15               0.000000   0.000000   0.000000   0.000000   0.000000   OUTLET    
16               0.000000   0.000000   0.000000   0.000000   0.000000   OUTLET    
17               0.000000   0.000000   0.000000   0.000000   0.000000   OUTLET    
18               0.000000   0.000000   0.000000   0.000000   0.000000   OUTLET    
2                0.000000   0.000000   0.000000   0.000000   0.000000   OUTLET    
3                0.000000   0.000000   0.000000   0.000000   0.000000   OUTLET    
4                0.000000   0.000000   0.000000   0.000000   0.000000   OUTLET    
5                0.000000   0.000000   0.000000   0.000000   0.000000   OUTLET    
6                0.000000   0.000000   0.000000   0.000000   0.000000   OUTLET    
7                0.000000   0.000000   0.000000   0.000000   0.000000   OUTLET    
8                0.000000   0.000000   0.000000   0.000000   0.000000   OUTLET    

[INFILTRATION]
;;Subcatchment   CurveNum              DryTime   
;;-------------- ---------- ---------- ----------
1                3.0        0.5        4         
10               3.0        0.5        4         
11               3.0        0.5        4         
12               3.0        0.5        4         
13               3.0        0.5        4         
14               3.0        0.5        4         
15               3.0        0.5        4         
16               3.0        0.5        4         
17               3.0        0.5        4         
18               3.0        0.5        4         
2                3.0        0.5        4         
3                3.0        0.5        4         
4                3.0        0.5        4         
5                3.0        0.5        4         
6                3.0        0.5        4         
7                3.0        0.5        4         
8                3.0        0.5        4         

[OUTFALLS]
;;Name           Elevation  Type       Stage Data       Gated    Route To        
;;-------------- ---------- ---------- ---------------- -------- ----------------
OUTFALL          -5.830000  FREE                        NO                       

[STORAGE]
;;Name           Elev.    MaxDepth   InitDepth  Shape      Curve Name/Params            N/A      Fevap    Psi      Ksat     IMD     
;;-------------- -------- ---------- ----------- ---------- ---------------------------- -------- --------          -------- --------
AS-2             -5.840000 19.030000  0.000000   TABULAR    A_SHAFT                      0.000000 0.000000
AS-AG10          -3.884000 16.400000  0.000000   TABULAR    A_SHAFT_TEMPORARY            0.000000 0.000000
AS-AG11          -3.790000 12.870000  0.000000   TABULAR    A_SHAFT                      0.000000 0.000000
AS-AG12          -3.560000 11.870000  0.000000   TABULAR    A_SHAFT                      0.000000 0.000000
AS-AG13          -3.523000 11.070000  0.000000   TABULAR    A_SHAFT                      0.000000 0.000000
AS-AG14          -1.120000 11.170000  0.000000   TABULAR    A_SHAFT                      0.000000 0.000000
AS-AG1A          -5.590000 16.530000  0.000000   TABULAR    A_SHAFT                      0.000000 0.000000
AS-AG1B          -5.620000 16.540000  0.000000   TABULAR    A_SHAFT                      0.000000 0.000000
AS-AG1C          -5.660000 16.680000  0.000000   TABULAR    A_SHAFT                      0.000000 0.000000
AS-AG2           -5.410000 16.420000  0.000000   TABULAR    A_SHAFT                      0.000000 0.000000
AS-AG3           -5.240000 14.150000  0.000000   TABULAR    A_SHAFT                      0.000000 0.000000
AS-AG4           -4.978000 11.798000  0.000000   TABULAR    A_SHAFT                      0.000000 0.000000
AS-AG5           -4.822000 12.140000  0.000000   TABULAR    A_SHAFT_TEMPORARY            0.000000 0.000000
AS-AG6           -4.695000 12.005000  0.000000   TABULAR    A_SHAFT                      0.000000 0.000000
AS-AG7           -4.544000 12.724000  0.000000   TABULAR    A_SHAFT                      0.000000 0.000000
AS-AG8           -4.286000 13.366000  0.000000   TABULAR    A_SHAFT                      0.000000 0.000000
AS-AG9           -4.020000 17.020000  0.000000   TABULAR    A_SHAFT                      0.000000 0.000000
AS-DKN1          -2.230000 11.360000  0.000000   TABULAR    A_SHAFT                      0.000000 0.000000
AS-DKN1A         -1.890000 11.190000  0.000000   TABULAR    A_SHAFT                      0.000000 0.000000
AS-DKN2          -1.840000 11.170000  0.000000   TABULAR    A_SHAFT                      0.000000 0.000000
AS-DKN3          -1.470000 12.890000  0.000000   TABULAR    A_SHAFT                      0.000000 0.000000
AS-DKN4          -1.150000 14.750000  0.000000   TABULAR    A_SHAFT                      0.000000 0.000000
AS-DKN5          -0.720000 16.830000  0.000000   TABULAR    A_SHAFT_TEMPORARY            0.000000 0.000000
AS-DKN6          -0.380000 19.760000  0.000000   TABULAR    A_SHAFT                      0.000000 0.000000
AS-DKN7          0.015000 23.767000  0.000000   TABULAR    A_SHAFT                      0.000000 0.000000
AS-DKN8          0.450000 24.950000  0.000000   TABULAR    A_SHAFT                      0.000000 0.000000
AS-DKN9          0.780000 25.180000  0.000000   TABULAR    A_SHAFT_TEMPORARY            0.000000 0.000000

[CONDUITS]
;;Name           From Node        To Node          Length     Roughness  InOffset   OutOffset  InitFlow   MaxFlow   
;;-------------- ---------------- ---------------- ---------- ---------- ---------- ---------- ---------- ----------
1                AS-DKN9          AS-DKN8          412.980000 0.015000   0.000000   0.000000   0.000000   0.000000  
10               AS-AG13          AS-AG12          90.750000  0.015000   0.003000   0.000000   0.000000   0.000000  
11               AS-AG12          AS-AG11          409.000000 0.015000   0.000000   0.000000   0.000000   0.000000  
12               AS-AG11          AS-AG10          170.000000 0.015000   0.000000   0.000000   0.000000   0.000000  
13               AS-AG10          AS-AG9           284.000000 0.015000   0.000000   0.000000   0.000000   0.000000  
14               AS-AG9           AS-AG8           516.000000 0.015000   0.000000   0.000000   0.000000   0.000000  
15               AS-AG8           AS-AG7           535.000000 0.015000   0.000000   0.000000   0.000000   0.000000  
16               AS-AG7           AS-AG6           303.000000 0.015000   0.000000   0.000000   0.000000   0.000000  
17               AS-AG6           AS-AG5           254.000000 0.015000   0.000000   0.000000   0.000000   0.000000  
18               AS-AG5           AS-AG4           312.000000 0.015000   0.000000   0.000000   0.000000   0.000000  
19               AS-AG4           AS-AG3           525.000000 0.015000   0.000000   0.000000   0.000000   0.000000  
2                AS-DKN8          AS-DKN7          545.000000 0.015000   0.000000   0.000000   0.000000   0.000000  
20               AS-AG3           AS-AG2           357.000000 0.015000   0.000000   0.000000   0.000000   0.000000  
21               AS-AG2           AS-AG1A          347.430000 0.015000   0.000000   0.000000   0.000000   0.000000  
22               AS-AG1A          AS-AG1B          58.820000  0.015000   0.000000   0.000000   0.000000   0.000000  
29               AS-DKN2          AS-DKN1A         66.010000  0.015000   0.000000   0.000000   0.000000   0.000000  
3                AS-DKN7          AS-DKN6          500.000000 0.015000   0.000000   0.000000   0.000000   0.000000  
30               AS-AG1C          AS-2             348.760000 0.015000   0.000000   0.000000   0.000000   0.000000  
31               AS-AG1B          AS-AG1C          77.970000  0.015000   0.000000   0.000000   0.000000   0.000000  
32               AS-AG14          AS-AG13          313.580000 0.015000   0.000000   2.243000   0.000000   0.000000  
4                AS-DKN6          AS-DKN5          423.000000 0.015000   0.000000   0.000000   0.000000   0.000000  
5                AS-DKN5          AS-DKN4          530.000000 0.015000   0.000000   0.000000   0.000000   0.000000  
6                AS-DKN4          AS-DKN3          405.290000 0.015000   0.000000   0.000000   0.000000   0.000000  
7                AS-DKN3          AS-DKN2          454.660000 0.015000   0.000000   0.000000   0.000000   0.000000  
8                AS-DKN1A         AS-DKN1          427.330000 0.015000   0.000000   0.000000   0.000000   0.000000  
9                AS-DKN1          AS-AG10          565.930000 0.015000   0.000000   1.204000   0.000000   0.000000  

[ORIFICES]
;;Name           From Node        To Node          Type         Offset     Qcoeff     Gated    CloseTime 
;;-------------- ---------------- ---------------- ------------ ---------- ---------- -------- ----------
ORIFICE          AS-2             OUTFALL          SIDE         0.040000   0.650000   NO       0         

[XSECTIONS]
;;Link           Shape        Geom1            Geom2      Geom3      Geom4      Barrels    Culvert   
;;-------------- ------------ ---------------- ---------- ---------- ---------- ---------- ----------
1                CIRCULAR     2.400000         0.000000   0.000000   0.000000   1          0         
10               CIRCULAR     1.600000         0.000000   0.000000   0.000000   1          0         
11               CIRCULAR     2.400000         0.000000   0.000000   0.000000   1          0         
12               CIRCULAR     2.400000         0.000000   0.000000   0.000000   1          0         
13               CIRCULAR     2.400000         0.000000   0.000000   0.000000   1          0         
14               CIRCULAR     2.400000         0.000000   0.000000   0.000000   1          0         
15               CIRCULAR     2.400000         0.000000   0.000000   0.000000   1          0         
16               CIRCULAR     2.400000         0.000000   0.000000   0.000000   1          0         
17               CIRCULAR     2.400000         0.000000   0.000000   0.000000   1          0         
18               CIRCULAR     2.400000         0.000000   0.000000   0.000000   1          0         
19               CIRCULAR     2.400000         0.000000   0.000000   0.000000   1          0         
2                CIRCULAR     2.400000         0.000000   0.000000   0.000000   1          0         
20               CIRCULAR     2.400000         0.000000   0.000000   0.000000   1          0         
21               CIRCULAR     2.400000         0.000000   0.000000   0.000000   1          0         
22               CIRCULAR     2.400000         0.000000   0.000000   0.000000   1          0         
29               CIRCULAR     2.400000         0.000000   0.000000   0.000000   1          0         
3                CIRCULAR     2.400000         0.000000   0.000000   0.000000   1          0         
30               CIRCULAR     2.400000         0.000000   0.000000   0.000000   1          0         
31               CIRCULAR     2.400000         0.000000   0.000000   0.000000   1          0         
32               CIRCULAR     1.600000         0.000000   0.000000   0.000000   1          0         
4                CIRCULAR     2.400000         0.000000   0.000000   0.000000   1          0         
5                CIRCULAR     2.400000         0.000000   0.000000   0.000000   1          0         
6                CIRCULAR     2.400000         0.000000   0.000000   0.000000   1          0         
7                CIRCULAR     2.400000         0.000000   0.000000   0.000000   1          0         
8                CIRCULAR     2.400000         0.000000   0.000000   0.000000   1          0         
9                CIRCULAR     2.400000         0.000000   0.000000   0.000000   1          0         
ORIFICE          CIRCULAR     0.740000         0          0          0

[LOSSES]
;;Link           Kentry     Kexit      Kavg       Flap Gate  Seepage   
;;-------------- ---------- ---------- ---------- ---------- ----------
1                0.000000   0.000000   0.000000   NO         0         
10               0.000000   0.000000   0.000000   NO         0         
11               0.000000   0.000000   0.000000   NO         0         
12               0.000000   0.000000   0.000000   NO         0         
13               0.000000   0.000000   0.000000   NO         0         
14               0.000000   0.000000   0.000000   NO         0         
15               0.000000   0.000000   0.000000   NO         0         
16               0.000000   0.000000   0.000000   NO         0         
17               0.000000   0.000000   0.000000   NO         0         
18               0.000000   0.000000   0.000000   NO         0         
19               0.000000   0.000000   0.000000   NO         0         
2                0.000000   0.000000   0.000000   NO         0         
20               0.000000   0.000000   0.000000   NO         0         
21               0.000000   0.000000   0.000000   NO         0         
22               0.000000   0.000000   0.000000   NO         0         
29               0.000000   0.000000   0.000000   NO         0         
3                0.000000   0.000000   0.000000   NO         0         
30               0.000000   0.000000   0.000000   NO         0         
31               0.000000   0.000000   0.000000   NO         0         
32               0.000000   0.000000   0.000000   NO         0         
4                0.000000   0.000000   0.000000   NO         0         
5                0.000000   0.000000   0.000000   NO         0         
6                0.000000   0.000000   0.000000   NO         0         
7                0.000000   0.000000   0.000000   NO         0         
8                0.000000   0.000000   0.000000   NO         0         
9                0.000000   0.000000   0.000000   NO         0         

[CONTROLS]


[INFLOWS]
;;Node           Constituent      Time Series      Type     Mfactor  Sfactor  Baseline Pattern
;;-------------- ---------------- ---------------- -------- -------- -------- -------- --------
AS-AG14          FLOW             NORTH_EAST       FLOW     1.0      1.000000 0.100000
AS-AG1A          FLOW             ""               FLOW     1.0      1.000000         
AS-AG5           FLOW             PROPOSED_FLOW_25Y FLOW     1.0      1.000000         
AS-AG6           FLOW             SOUTH_EAST       FLOW     1.0      1.000000 0.390000
AS-DKN4          FLOW             NORTH_WEST       FLOW     1.0      1.000000         

[CURVES]
;;Name           Type       X-Value    Y-Value   
;;-------------- ---------- ---------- ----------
A_SHAFT          STORAGE    1.000000   28.000000 
A_SHAFT                     5.000000   28.000000 
A_SHAFT                     10.000000  28.000000 
A_SHAFT                     15.000000  28.000000 
A_SHAFT                     20.000000  28.000000 
A_SHAFT                     25.000000  28.000000 
A_SHAFT                     30.000000  28.000000 
A_SHAFT                     35.000000  28.000000 
;
A_SHAFT_TEMPORARY STORAGE    1.000000   67.920000 
A_SHAFT_TEMPORARY            5.000000   67.920000 
A_SHAFT_TEMPORARY            10.000000  67.920000 
A_SHAFT_TEMPORARY            15.000000  67.920000 
A_SHAFT_TEMPORARY            20.000000  67.920000 
A_SHAFT_TEMPORARY            25.000000  67.920000 
A_SHAFT_TEMPORARY            30.000000  67.920000 
A_SHAFT_TEMPORARY            35.000000  67.920000 

[TIMESERIES]
;;Name           Date       Time       Value     
;;-------------- ---------- ---------- ----------
NORTH_WEST                  0          0.000000  
NORTH_WEST                  00:25      0.000000  
NORTH_WEST                  00:45      0.750000  
NORTH_WEST                  01:00      0.750000  
NORTH_WEST                  01:10      0.820000  
NORTH_WEST                  2:00       0.800000  
NORTH_WEST                  4:00       0.800000  
NORTH_WEST                  5:00       0.800000  
NORTH_WEST                  7:00       0.800000  
NORTH_WEST                  7:30       0.800000  
NORTH_WEST                  8:00       0.750000  
NORTH_WEST                  9:30       0.750000  
NORTH_WEST                  10:00      0.530000  
NORTH_WEST                  11:00      0.000000  
NORTH_WEST                  12:00      0.000000  
NORTH_WEST                  18:00      0.000000  
NORTH_WEST                  24:00      0.000000  
;
NORTH_EAST                  0:00       0.000000  
NORTH_EAST                  0:40       0.000000  
NORTH_EAST                  0:50       0.540000  
NORTH_EAST                  1:00       0.540000  
NORTH_EAST                  1:15       0.850000  
NORTH_EAST                  2:00       0.880000  
NORTH_EAST                  3:00       0.880000  
NORTH_EAST                  6:00       0.880000  
NORTH_EAST                  7:40       0.730000  
NORTH_EAST                  8:30       0.540000  
NORTH_EAST                  9:45       0.540000  
NORTH_EAST                  10:20      0.450000  
NORTH_EAST                  11:45      0.070000  
NORTH_EAST                  14:35      0.000000  
NORTH_EAST                  18:00      0.000000  
NORTH_EAST                  24:00      0.000000  
;
SOUTH_EAST                  0:00       0.000000  
SOUTH_EAST                  00:20      0.000000  
SOUTH_EAST                  00:45      0.750000  
SOUTH_EAST                  1:00       0.750000  
SOUTH_EAST                  1:15       1.100000  
SOUTH_EAST                  2:00       1.020000  
SOUTH_EAST                  3:00       0.880000  
SOUTH_EAST                  3:10       0.750000  
SOUTH_EAST                  5:00       0.750000  
SOUTH_EAST                  6:00       0.020000  
SOUTH_EAST                  7:00       0.000000  
SOUTH_EAST                  12:00      0.000000  
SOUTH_EAST                  24:00      0.000000  
;
6_HOURS_STORM_25YEAR            1:00       0.000000  
6_HOURS_STORM_25YEAR            1:10       0.560000  
6_HOURS_STORM_25YEAR            1:20       1.170000  
6_HOURS_STORM_25YEAR            1:30       1.850000  
6_HOURS_STORM_25YEAR            1:40       2.750000  
6_HOURS_STORM_25YEAR            1:50       3.770000  
6_HOURS_STORM_25YEAR            2:00       4.970000  
6_HOURS_STORM_25YEAR            2:10       6.780000  
6_HOURS_STORM_25YEAR            2:20       9.190000  
6_HOURS_STORM_25YEAR            2:30       14.690000 
6_HOURS_STORM_25YEAR            2:40       27.220000 
6_HOURS_STORM_25YEAR            2:50       30.980000 
6_HOURS_STORM_25YEAR            3:00       33.030000 
6_HOURS_STORM_25YEAR            3:10       34.360000 
6_HOURS_STORM_25YEAR            3:20       35.470000 
6_HOURS_STORM_25YEAR            3:30       36.420000 
6_HOURS_STORM_25YEAR            3:40       37.140000 
6_HOURS_STORM_25YEAR            3:50       37.780000 
6_HOURS_STORM_25YEAR            4:00       38.370000 
6_HOURS_STORM_25YEAR            4:10       38.880000 
6_HOURS_STORM_25YEAR            4:20       39.380000 
6_HOURS_STORM_25YEAR            4:30       39.860000 
6_HOURS_STORM_25YEAR            4:40       40.330000 
6_HOURS_STORM_25YEAR            4:50       40.770000 
6_HOURS_STORM_25YEAR            5:00       41.210000 
6_HOURS_STORM_25YEAR            5:10       41.630000 
6_HOURS_STORM_25YEAR            5:20       42.030000 
6_HOURS_STORM_25YEAR            5:30       42.430000 
6_HOURS_STORM_25YEAR            5:40       42.810000 
6_HOURS_STORM_25YEAR            5:50       43.190000 
6_HOURS_STORM_25YEAR            6:00       43.550000 
6_HOURS_STORM_25YEAR            6:10       43.910000 
6_HOURS_STORM_25YEAR            6:20       44.260000 
6_HOURS_STORM_25YEAR            6:30       44.600000 
6_HOURS_STORM_25YEAR            6:40       44.930000 
6_HOURS_STORM_25YEAR            6:50       45.250000 
6_HOURS_STORM_25YEAR            7:00       45.570000 
6_HOURS_STORM_25YEAR            7:10       45.570000 
6_HOURS_STORM_25YEAR            7:20       45.570000 
6_HOURS_STORM_25YEAR            7:30       45.570000 
6_HOURS_STORM_25YEAR            7:40       45.570000 
6_HOURS_STORM_25YEAR            7:50       45.570000 
6_HOURS_STORM_25YEAR            8:00       45.570000 
6_HOURS_STORM_25YEAR            8:10       45.570000 
6_HOURS_STORM_25YEAR            8:20       45.570000 
6_HOURS_STORM_25YEAR            8:30       45.570000 
6_HOURS_STORM_25YEAR            8:40       45.570000 
6_HOURS_STORM_25YEAR            8:50       45.570000 
6_HOURS_STORM_25YEAR            9:00       45.570000 
6_HOURS_STORM_25YEAR            9:10       45.570000 
6_HOURS_STORM_25YEAR            9:20       45.570000 
6_HOURS_STORM_25YEAR            9:30       45.570000 
6_HOURS_STORM_25YEAR            9:40       45.570000 
6_HOURS_STORM_25YEAR            9:50       45.570000 
6_HOURS_STORM_25YEAR            10:00      45.570000 
6_HOURS_STORM_25YEAR            10:10      45.570000 
6_HOURS_STORM_25YEAR            10:20      45.570000 
6_HOURS_STORM_25YEAR            10:30      45.570000 
6_HOURS_STORM_25YEAR            10:40      45.570000 
6_HOURS_STORM_25YEAR            10:50      45.570000 
6_HOURS_STORM_25YEAR            11:00      45.570000 
6_HOURS_STORM_25YEAR            11:10      45.570000 
6_HOURS_STORM_25YEAR            11:20      45.570000 
6_HOURS_STORM_25YEAR            11:30      45.570000 
6_HOURS_STORM_25YEAR            11:40      45.570000 
6_HOURS_STORM_25YEAR            11:50      45.570000 
6_HOURS_STORM_25YEAR            12:00      45.570000 
6_HOURS_STORM_25YEAR            12:10      45.570000 
6_HOURS_STORM_25YEAR            12:20      45.570000 
6_HOURS_STORM_25YEAR            12:30      45.570000 
6_HOURS_STORM_25YEAR            12:40      45.570000 
6_HOURS_STORM_25YEAR            12:50      45.570000 
6_HOURS_STORM_25YEAR            13:00      45.570000 
6_HOURS_STORM_25YEAR            13:10      45.570000 
6_HOURS_STORM_25YEAR            13:20      45.570000 
6_HOURS_STORM_25YEAR            13:30      45.570000 
6_HOURS_STORM_25YEAR            13:40      45.570000 
6_HOURS_STORM_25YEAR            13:50      45.570000 
6_HOURS_STORM_25YEAR            14:00      45.570000 
6_HOURS_STORM_25YEAR            14:10      45.570000 
6_HOURS_STORM_25YEAR            14:20      45.570000 
6_HOURS_STORM_25YEAR            14:30      45.570000 
6_HOURS_STORM_25YEAR            14:40      45.570000 
6_HOURS_STORM_25YEAR            14:50      45.570000 
6_HOURS_STORM_25YEAR            15:00      45.570000 
6_HOURS_STORM_25YEAR            15:10      45.570000 
6_HOURS_STORM_25YEAR            15:20      45.570000 
6_HOURS_STORM_25YEAR            15:30      45.570000 
6_HOURS_STORM_25YEAR            15:40      45.570000 
6_HOURS_STORM_25YEAR            15:50      45.570000 
6_HOURS_STORM_25YEAR            16:00      45.570000 
6_HOURS_STORM_25YEAR            16:10      45.570000 
6_HOURS_STORM_25YEAR            16:20      45.570000 
6_HOURS_STORM_25YEAR            16:30      45.570000 
6_HOURS_STORM_25YEAR            16:40      45.570000 
6_HOURS_STORM_25YEAR            16:50      45.570000 
6_HOURS_STORM_25YEAR            17:00      45.570000 
6_HOURS_STORM_25YEAR            17:10      45.570000 
6_HOURS_STORM_25YEAR            17:20      45.570000 
6_HOURS_STORM_25YEAR            17:30      45.570000 
6_HOURS_STORM_25YEAR            17:40      45.570000 
6_HOURS_STORM_25YEAR            17:50      45.570000 
6_HOURS_STORM_25YEAR            18:00      45.570000 
6_HOURS_STORM_25YEAR            18:10      45.570000 
6_HOURS_STORM_25YEAR            18:20      45.570000 
6_HOURS_STORM_25YEAR            18:30      45.570000 
6_HOURS_STORM_25YEAR            18:40      45.570000 
6_HOURS_STORM_25YEAR            18:50      45.570000 
6_HOURS_STORM_25YEAR            19:00      45.570000 
6_HOURS_STORM_25YEAR            19:10      45.570000 
6_HOURS_STORM_25YEAR            19:20      45.570000 
6_HOURS_STORM_25YEAR            19:30      45.570000 
6_HOURS_STORM_25YEAR            19:40      45.570000 
6_HOURS_STORM_25YEAR            19:50      45.570000 
6_HOURS_STORM_25YEAR            20:00      45.570000 
6_HOURS_STORM_25YEAR            20:10      45.570000 
6_HOURS_STORM_25YEAR            20:20      45.570000 
6_HOURS_STORM_25YEAR            20:30      45.570000 
6_HOURS_STORM_25YEAR            20:40      45.570000 
6_HOURS_STORM_25YEAR            20:50      45.570000 
6_HOURS_STORM_25YEAR            21:00      45.570000 
6_HOURS_STORM_25YEAR            21:10      45.570000 
6_HOURS_STORM_25YEAR            21:20      45.570000 
6_HOURS_STORM_25YEAR            21:30      45.570000 
6_HOURS_STORM_25YEAR            21:40      45.570000 
6_HOURS_STORM_25YEAR            21:50      45.570000 
6_HOURS_STORM_25YEAR            22:00      45.570000 
6_HOURS_STORM_25YEAR            22:10      45.570000 
6_HOURS_STORM_25YEAR            22:20      45.570000 
6_HOURS_STORM_25YEAR            22:30      45.570000 
6_HOURS_STORM_25YEAR            22:40      45.570000 
6_HOURS_STORM_25YEAR            22:50      45.570000 
6_HOURS_STORM_25YEAR            23:00      45.570000 
6_HOURS_STORM_25YEAR            23:10      45.570000 
6_HOURS_STORM_25YEAR            23:20      45.570000 
6_HOURS_STORM_25YEAR            23:30      45.570000 
6_HOURS_STORM_25YEAR            23:40      45.570000 
6_HOURS_STORM_25YEAR            23:50      45.570000 
6_HOURS_STORM_25YEAR            24:00      45.570000 
;
6_HOURS_STORM_50YEAR            1:00       0.000000  
6_HOURS_STORM_50YEAR            1:10       0.680000  
6_HOURS_STORM_50YEAR            1:20       1.420000  
6_HOURS_STORM_50YEAR            1:30       2.240000  
6_HOURS_STORM_50YEAR            1:40       3.260000  
6_HOURS_STORM_50YEAR            1:50       4.420000  
6_HOURS_STORM_50YEAR            2:00       5.790000  
6_HOURS_STORM_50YEAR            2:10       7.880000  