[OPTIONS]
;Option and Files Scenario Set: 2015
FLOW_UNITS		MGD
INFILTRATION		HORTON
FLOW_ROUTING		DYNWAVE
LINK_OFFSETS		DEPTH
MIN_SLOPE		0.000000
ALLOW_PONDING		NO
SKIP_STEADY_STATE 	NO
IGNORE_RAINFALL		YES
IGNORE_SNOWMELT		YES
IGNORE_GROUNDWATER	YES
IGNORE_QUALITY		YES

START_DATE		03/22/2017
START_TIME		00:00
REPORT_START_DATE	03/23/2017
REPORT_START_TIME	00:00
END_DATE		03/25/2017
END_TIME		23:00
SWEEP_START		01/01
SWEEP_END		12/31
DRY_DAYS		5.000000
REPORT_STEP		00:15:00
WET_STEP		01:00:00
DRY_STEP		23:00:00
ROUTING_STEP		5

INERTIAL_DAMPING	PARTIAL
NORMAL_FLOW_LIMITED	SLOPE
FORCE_MAIN_EQUATION	H-W
VARIABLE_STEP		0.750000
LENGTHENING_STEP	0
MIN_SURFAREA		0.000000
MAX_TRIALS		4
HEAD_TOLERANCE	0.005000
MINIMUM_STEP		0.000000


[FILES]

[RAINGAGES]
AIRPORT	VOLUME	0.250000	1.000000	TIMESERIES	19-Mar		
RAINGAGE-1	VOLUME	0.250000	1.000000	TIMESERIES	19-Mar		
RAINGAGE-2	VOLUME	0.250000	1.000000	TIMESERIES	19-Mar		
RAINGAGE-3	VOLUME	0.250000	1.000000	TIMESERIES	19-Mar		
RAINGAGE-4	VOLUME	0.250000	1.000000	TIMESERIES	19-Mar		

[HYDROGRAPHS]
; 
B_A	RAINGAGE-4
B_A	ALL	Short	0.180000	0.500000	2.500000	0.000000	0.000000	0.000000
B_A	ALL	Medium	0.140000	3.000000	1.800000	0.000000	0.000000	0.000000
B_A	ALL	Long	0.679000	9.000000	3.200000	0.000000	0.000000	0.000000
; 
B_BC	RAINGAGE-4
B_BC	ALL	Short	0.015000	0.500000	2.500000	0.000000	0.000000	0.000000
B_BC	ALL	Medium	0.030000	3.000000	1.800000	0.000000	0.000000	0.000000
B_BC	ALL	Long	0.150000	9.000000	3.200000	0.000000	0.000000	0.000000
; 
B_DFG	RAINGAGE-3
B_DFG	ALL	Short	0.180000	0.500000	2.500000	0.000000	0.000000	0.000000
B_DFG	ALL	Medium	0.090000	3.000000	1.800000	0.000000	0.000000	0.000000
B_DFG	ALL	Long	0.200000	9.000000	3.200000	0.000000	0.000000	0.000000
; 
B_HIJKLMN	RAINGAGE-3
B_HIJKLMN	ALL	Short	0.110000	0.500000	2.500000	0.000000	0.000000	0.000000
B_HIJKLMN	ALL	Medium	0.090000	3.000000	1.800000	0.000000	0.000000	0.000000
B_HIJKLMN	ALL	Long	0.500000	9.000000	3.200000	0.000000	0.000000	0.000000
; 
C	AIRPORT
C	ALL	Short	0.060000	0.500000	2.500000	0.000000	0.000000	0.000000
C	ALL	Medium	0.030000	3.000000	1.800000	0.000000	0.000000	0.000000
C	ALL	Long	0.300000	9.000000	3.200000	0.000000	0.000000	0.000000
; 
D	RAINGAGE-4
D	ALL	Short	0.015000	0.500000	2.500000	0.000000	0.000000	0.000000
D	ALL	Medium	0.030000	3.000000	1.800000	0.000000	0.000000	0.000000
D	ALL	Long	0.150000	9.000000	3.200000	0.000000	0.000000	0.000000
; 
DWEST	RAINGAGE-3
DWEST	ALL	Short	0.200000	0.500000	2.500000	0.000000	0.000000	0.000000
DWEST	ALL	Medium	0.250000	3.000000	1.800000	0.000000	0.000000	0.000000
DWEST	ALL	Long	0.300000	9.000000	3.200000	0.000000	0.000000	0.000000
; 
F	RAINGAGE-3
F	ALL	Short	0.300000	0.500000	2.500000	0.000000	0.000000	0.000000
F	ALL	Medium	0.200000	3.000000	1.800000	0.000000	0.000000	0.000000
F	ALL	Long	0.450000	9.000000	3.200000	0.000000	0.000000	0.000000
; 
H	RAINGAGE-2
H	ALL	Short	0.060000	0.500000	2.500000	0.000000	0.000000	0.000000
H	ALL	Medium	0.060000	3.000000	1.800000	0.000000	0.000000	0.000000
H	ALL	Long	0.080000	9.000000	3.200000	0.000000	0.000000	0.000000
; 
K	RAINGAGE-3
K	ALL	Short	0.150000	0.500000	2.500000	0.000000	0.000000	0.000000
K	ALL	Medium	0.090000	3.000000	1.800000	0.000000	0.000000	0.000000
K	ALL	Long	0.200000	9.000000	3.200000	0.000000	0.000000	0.000000
; 
L	AIRPORT
L	ALL	Short	0.180000	0.500000	2.500000	0.000000	0.000000	0.000000
L	ALL	Medium	0.140000	3.000000	1.800000	0.000000	0.000000	0.000000
L	ALL	Long	0.679000	9.000000	3.200000	0.000000	0.000000	0.000000
; 
M	RAINGAGE-3
M	ALL	Short	0.015000	0.500000	2.500000	0.000000	0.000000	0.000000
M	ALL	Medium	0.030000	3.000000	1.800000	0.000000	0.000000	0.000000
M	ALL	Long	0.300000	9.000000	3.200000	0.000000	0.000000	0.000000
; 
N	RAINGAGE-1
N	ALL	Short	0.200000	0.500000	2.500000	0.000000	0.000000	0.000000
N	ALL	Medium	0.250000	3.000000	1.800000	0.000000	0.000000	0.000000
N	ALL	Long	0.300000	9.000000	3.200000	0.000000	0.000000	0.000000
; 
O	RAINGAGE-2
O	ALL	Short	0.010000	0.500000	2.500000	0.000000	0.000000	0.000000
O	ALL	Medium	0.010000	3.000000	1.800000	0.000000	0.000000	0.000000
O	ALL	Long	0.010000	9.000000	3.200000	0.000000	0.000000	0.000000
; 
OTOWN	RAINGAGE-1
OTOWN	ALL	Short	0.200000	0.500000	2.500000	0.000000	0.000000	0.000000
OTOWN	ALL	Medium	0.250000	3.000000	1.800000	0.000000	0.000000	0.000000
OTOWN	ALL	Long	0.300000	9.000000	3.200000	0.000000	0.000000	0.000000
; 
R	RAINGAGE-1
R	ALL	Short	0.090000	0.500000	2.500000	0.000000	0.000000	0.000000
R	ALL	Medium	0.140000	3.000000	1.800000	0.000000	0.000000	0.000000
R	ALL	Long	0.200000	9.000000	3.200000	0.000000	0.000000	0.000000
; 
S	RAINGAGE-4
S	ALL	Short	0.032000	0.500000	2.500000	0.000000	0.000000	0.000000
S	ALL	Medium	0.080000	3.000000	1.800000	0.000000	0.000000	0.000000
S	ALL	Long	0.210000	9.000000	3.200000	0.000000	0.000000	0.000000
; 
W	RAINGAGE-4
W	ALL	Short	0.200000	0.500000	2.500000	0.000000	0.000000	0.000000
W	ALL	Medium	0.250000	3.000000	1.800000	0.000000	0.000000	0.000000
W	ALL	Long	0.300000	9.000000	3.200000	0.000000	0.000000	0.000000
; 
X	RAINGAGE-4
X	ALL	Short	0.048000	0.500000	2.500000	0.000000	0.000000	0.000000
X	ALL	Medium	0.170000	3.000000	1.800000	0.000000	0.000000	0.000000
X	ALL	Long	0.270000	9.000000	3.200000	0.000000	0.000000	0.000000
; 
Y	RAINGAGE-2
Y	ALL	Short	0.060000	0.500000	2.500000	0.000000	0.000000	0.000000
Y	ALL	Medium	0.060000	3.000000	1.800000	0.000000	0.000000	0.000000
Y	ALL	Long	0.080000	9.000000	3.200000	0.000000	0.000000	0.000000

[EVAPORATION]
CONSTANT	0.000000
DRY_ONLY	NO

[TEMPERATURE]
; BASE Run Climatology Settings

[SUBCATCHMENTS]

[SUBAREAS]

[INFILTRATION]

[AQUIFERS]

[GROUNDWATER]

[GWF]

[SNOWPACKS]

[JUNCTIONS]
CSMH-A0918	382.490000	9.510000	0.000000	0.000000	0.000000
CSMH-A0919	381.970000	8.030000	0.000000	0.000000	0.000000
CSMH-A0920	381.260000	6.740000	0.000000	0.000000	0.000000
CSMH-A3531	407.090000	10.910000	0.000000	0.000000	0.000000
CSMH-A4219	397.740000	14.260000	0.000000	0.000000	0.000000
CSMH-A4220	393.540000	12.460000	0.000000	0.000000	0.000000
CSMH-A4221	393.180000	10.820000	0.000000	0.000000	0.000000
CSMH-A4222	380.400000	7.600000	0.000000	0.000000	0.000000
CSMH-A4223	376.030000	17.970000	0.000000	0.000000	0.000000
CSMH-A4224	378.800000	3.200000	0.000000	0.000000	0.000000
CSMH-A8211	388.820000	11.180000	0.000000	0.000000	0.000000
CSMH-A8213	387.530000	8.470000	0.000000	0.000000	0.000000
CSMH-A8214	364.180000	11.820000	0.000000	0.000000	0.000000
CSMH-B1768	362.930000	7.070000	0.000000	0.000000	0.000000
CSMH-B4715	406.450000	7.550000	0.000000	0.000000	0.000000
CSMH-B4716	389.690000	10.310000	0.000000	0.000000	0.000000
CSMH-B4718	386.770000	9.230000	0.000000	0.000000	0.000000
CSMH-B4719	386.000000	8.000000	0.000000	0.000000	0.000000
CSMH-B4720	363.160000	8.840000	0.000000	0.000000	0.000000
CSMH-B4721	380.010000	7.990000	0.000000	0.000000	0.000000
CSMH-B4722	379.260000	8.740000	0.000000	0.000000	0.000000
CSMH-B4723	373.650000	18.350000	0.000000	0.000000	0.000000
CSMH-B47417	389.350000	6.650000	0.000000	0.000000	0.000000
CSMH-C0669	406.120000	3.880000	0.000000	0.000000	0.000000
CSMH-C0670	403.630000	7.820000	0.000000	0.000000	0.000000
CSMH-C0671	398.330000	7.670000	0.000000	0.000000	0.000000
CSMH-C0672	392.730000	11.270000	0.000000	0.000000	0.000000
CSMH-C0673	386.250000	7.750000	0.000000	0.000000	0.000000
CSMH-C0674	384.120000	7.880000	0.000000	0.000000	0.000000
CSMH-C0675	374.530000	23.470000	0.000000	0.000000	0.000000
CSMH-C0676	374.050000	21.950000	0.000000	0.000000	0.000000
CSMH-C0677	373.170000	10.830000	0.000000	0.000000	0.000000
CSMH-C2522	360.180000	9.820000	0.000000	0.000000	0.000000
CSMH-C2679	408.060000	18.400000	0.000000	0.000000	0.000000
CSMH-S8212	387.990000	10.010000	0.000000	0.000000	0.000000
DC-1	485.370000	23.860000	0.000000	0.000000	0.000000
DC-10	465.200000	11.550000	0.000000	0.000000	0.000000
DC-11	460.440000	12.900000	0.000000	0.000000	0.000000
DC-12	449.180000	7.870000	0.000000	0.000000	0.000000
DC-13	447.360000	9.520000	0.000000	0.000000	0.000000
DC-14	445.100000	17.460000	0.000000	0.000000	0.000000
DC-15	440.880000	4.730000	0.000000	0.000000	0.000000
DC-16	438.830000	6.120000	0.000000	0.000000	0.000000
DC-17	435.540000	7.250000	0.000000	0.000000	0.000000
DC-18	432.680000	9.450000	0.000000	0.000000	0.000000
DC-19	430.860000	11.890000	0.000000	0.000000	0.000000
DC-2	484.870000	24.050000	0.000000	0.000000	0.000000
DC-20	429.660000	7.100000	0.000000	0.000000	0.000000
DC-21	428.800000	4.200000	0.000000	0.000000	0.000000
DC-22	427.160000	11.110000	0.000000	0.000000	0.000000
DC-23	425.740000	14.560000	0.000000	0.000000	0.000000
DC-24	424.100000	7.100000	0.000000	0.000000	0.000000
DC-25	422.080000	17.580000	0.000000	0.000000	0.000000
DC-26	421.150000	12.700000	0.000000	0.000000	0.000000
DC-27	419.930000	10.590000	0.000000	0.000000	0.000000
DC-28	418.260000	17.150000	0.000000	0.000000	0.000000
DC-29	417.650000	18.070000	0.000000	0.000000	0.000000
DC-3	483.570000	22.960000	0.000000	0.000000	0.000000
DC-30	417.200000	15.250000	0.000000	0.000000	0.000000
DC-31	408.240000	14.390000	0.000000	0.000000	0.000000
DC-4	482.120000	20.970000	0.000000	0.000000	0.000000
DC-5	480.110000	13.980000	0.000000	0.000000	0.000000
DC-6	477.680000	10.230000	0.000000	0.000000	0.000000
DC-7	473.040000	6.950000	0.000000	0.000000	0.000000
DC-8	467.340000	9.900000	0.000000	0.000000	0.000000
DC-9	466.610000	9.300000	0.000000	0.000000	0.000000

[OUTFALLS]
; Dozier Creek Outfall
OFALL-16	355.000000	FREE	NO

[DIVIDERS]

[STORAGE]

[CONDUITS]
; New Conduit
CDT-207	DC-1	DC-2	72.660450	0.010000	0.000000	0.040000	0.000000	0.000000
; New Conduit
CDT-209	DC-2	DC-3	230.648911	0.010000	0.000000	0.100000	0.000000	0.000000
; New Conduit
CDT-211	DC-3	DC-4	285.263250	0.010000	0.000000	0.100000	0.000000	0.000000
; New Conduit
CDT-213	DC-4	DC-5	393.489928	0.010000	0.000000	0.090000	0.000000	0.000000
; New Conduit
CDT-215	DC-5	DC-6	199.966258	0.010000	0.000000	0.180000	0.000000	0.000000
; New Conduit
CDT-217	DC-6	DC-7	377.714154	0.010000	0.000000	0.250000	0.000000	0.000000
; New Conduit
CDT-219	DC-7	DC-8	263.101395	0.010000	0.000000	0.100000	0.000000	0.000000
; New Conduit
CDT-221	DC-8	DC-9	92.896141	0.010000	0.000000	0.270000	0.000000	0.000000
; New Conduit
CDT-223	DC-9	DC-10	136.842702	0.010000	0.150000	0.170000	0.000000	0.000000
; New Conduit
CDT-225	DC-10	DC-11	74.218750	0.010000	0.000000	0.100000	0.000000	0.000000
; New Conduit
CDT-227	DC-11	DC-12	391.572202	0.010000	0.000000	0.100000	0.000000	0.000000
; New Conduit
CDT-229	DC-12	DC-13	377.491901	0.010000	0.000000	0.140000	0.000000	0.000000
; New Conduit
CDT-231	DC-13	DC-14	389.081151	0.010000	0.000000	0.100000	0.000000	0.000000
; New Conduit
CDT-233	DC-14	DC-15	322.919292	0.010000	0.000000	0.190000	0.000000	0.000000
; New Conduit
CDT-235	DC-15	DC-16	250.013563	0.010000	0.000000	0.170000	0.000000	0.000000
; New Conduit
CDT-237	DC-16	DC-17	217.697275	0.010000	0.000000	0.080000	0.000000	0.000000
; New Conduit
CDT-239	DC-17	DC-18	191.104851	0.010000	0.000000	0.000000	0.000000	0.000000
; New Conduit
CDT-241	DC-18	DC-19	369.006833	0.010000	0.000000	0.090000	0.000000	0.000000
; New Conduit
CDT-243	DC-19	DC-20	196.890328	0.010000	0.000000	1.100000	0.000000	0.000000
; New Conduit
CDT-245	DC-20	DC-21	147.417456	0.010000	0.000000	0.100000	0.000000	0.000000
; New Conduit
CDT-247	DC-21	DC-22	360.056061	0.010000	0.000000	0.100000	0.000000	0.000000
; New Conduit
CDT-249	DC-22	DC-23	263.346153	0.010000	0.000000	0.210000	0.000000	0.000000
; New Conduit
CDT-251	DC-23	DC-24	314.180054	0.010000	0.000000	0.020000	0.000000	0.000000
; New Conduit
CDT-253	DC-24	DC-25	380.502526	0.010000	0.000000	0.080000	0.000000	0.000000
; New Conduit
CDT-255	DC-25	DC-26	197.715255	0.010000	0.000000	0.030000	0.000000	0.000000
; New Conduit
CDT-257	DC-26	DC-27	200.592689	0.010000	0.000000	0.090000	0.000000	0.000000
; New Conduit
CDT-259	DC-27	DC-28	132.223982	0.010000	0.000000	0.220000	0.000000	0.000000
; New Conduit
CDT-261	DC-28	DC-29	130.734614	0.010000	0.000000	0.320000	0.000000	0.000000
; New Conduit
CDT-263	DC-29	DC-30	59.112289	0.010000	0.000000	0.050000	0.000000	0.000000
; New Conduit
CDT-265	DC-30	DC-31	113.281250	0.010000	0.000000	0.020000	0.000000	0.000000
; New Conduit
CDT-267	DC-31	CSMH-C2679	40.312317	0.010000	0.000000	0.000000	0.000000	0.000000
CSGM-A0090	CSMH-C0673	CSMH-B4719	143.229000	0.013000	0.000000	0.000000	0.000000	0.000000
CSGM-A0123	CSMH-A4222	CSMH-B4721	173.938000	0.013000	0.000000	0.000000	0.000000	0.000000
CSGM-A0153	CSMH-C2522	OFALL-16	44.581875	0.013000	0.000000	5.000000	0.000000	0.000000
CSGM-A0652	CSMH-A4219	CSMH-A4220	173.977000	0.013000	0.000000	1.830000	0.000000	0.000000
CSGM-A2422	CSMH-B47417	CSMH-A8211	130.195000	0.013000	0.000000	0.000000	0.000000	0.000000
CSGM-A4437	CSMH-B4716	CSMH-B47417	141.460000	0.013000	0.000000	0.000000	0.000000	0.000000
CSGM-A4438	CSMH-A8213	CSMH-B4718	274.299000	0.013000	0.000000	0.000000	0.000000	0.000000
CSGM-A4439	CSMH-A8214	CSMH-B4720	291.026000	0.013000	0.000000	0.000000	0.000000	0.000000
CSGM-A4740	CSMH-C0676	CSMH-B4723	134.581000	0.013000	0.000000	0.000000	0.000000	0.000000
CSGM-A6387	CSMH-B4718	CSMH-C0673	208.300000	0.013000	0.000000	0.000000	0.000000	0.000000
CSGM-A6942	CSMH-A0920	CSMH-A4222	283.734000	0.013000	0.000000	0.000000	0.000000	0.000000
CSGM-A7695	CSMH-A4223	CSMH-C0675	174.549000	0.013000	0.000000	0.000000	0.000000	0.000000
CSGM-A8656	CSMH-A4220	CSMH-A4221	142.587000	0.013000	0.000000	0.000000	0.000000	0.000000
CSGM-A8733	CSMH-C0670	CSMH-C0671	241.482000	0.013000	0.000000	1.870000	0.000000	0.000000
CSGM-A9385	CSMH-A0919	CSMH-A0920	244.045000	0.013000	0.000000	0.000000	0.000000	0.000000
CSGM-A9921	CSMH-S8212	CSMH-A8213	144.886000	0.013000	0.000000	0.000000	0.000000	0.000000
CSGM-B0006	CSMH-B4719	CSMH-C0674	251.573000	0.013000	0.000000	0.720000	0.000000	0.000000
CSGM-B1276	CSMH-A4224	CSMH-A4223	169.803000	0.013000	0.000000	2.000000	0.000000	0.000000
CSGM-B1369	CSMH-B4723	CSMH-C0677	229.330000	0.013000	0.000000	0.000000	0.000000	0.000000
CSGM-B2142	CSMH-B4721	CSMH-B4722	125.485000	0.013000	0.000000	0.280000	0.000000	0.000000
CSGM-B4179	CSMH-C0675	CSMH-C0676	91.139000	0.013000	0.000000	0.000000	0.000000	0.000000
CSGM-B4180	CSMH-B4720	CSMH-B1768	92.813000	0.013000	0.000000	0.000000	0.000000	0.000000
CSGM-B4815	CSMH-C0674	CSMH-A0918	286.960000	0.013000	0.000000	0.890000	0.000000	0.000000
CSGM-B4836	CSMH-C0672	CSMH-B4716	169.628000	0.013000	0.000000	1.720000	0.000000	0.000000
CSGM-B4890	CSMH-A3531	CSMH-B4715	187.671000	0.013000	0.000000	0.000000	0.000000	0.000000
CSGM-B4892	CSMH-C0671	CSMH-A4219	226.728000	0.013000	0.000000	0.000000	0.000000	0.000000
CSGM-B5182	CSMH-B1768	CSMH-C2522	159.169000	0.013000	0.000000	1.800000	0.000000	0.000000
CSGM-B5517	CSMH-A4221	CSMH-C0672	181.990000	0.013000	0.000000	0.000000	0.000000	0.000000
CSGM-B6416	CSMH-C0669	CSMH-C0670	283.477000	0.013000	0.000000	0.770000	0.000000	0.000000
CSGM-B6961	CSMH-B4715	CSMH-C0669	226.277000	0.013000	0.000000	0.000000	0.000000	0.000000
CSGM-B8811	CSMH-A0918	CSMH-A0919	369.812000	0.013000	0.000000	0.000000	0.000000	0.000000
CSGM-B9282	CSMH-A8211	CSMH-S8212	237.142000	0.013000	0.000000	0.000000	0.000000	0.000000
CSGM-C0817	CSMH-C0677	CSMH-A8214	294.535000	0.013000	0.000000	1.520000	0.000000	0.000000
CSGM-C1381	CSMH-B4722	CSMH-A4224	213.462000	0.013000	0.000000	0.120000	0.000000	0.000000
CSGM-C3182	CSMH-C2679	CSMH-A3531	284.949000	0.013000	0.140000	0.000000	0.000000	0.000000

[PUMPS]

[ORIFICES]

[WEIRS]

[XSECTIONS]
CDT-207	CIRCULAR	0.667000	0.000000	0.000000	0.000000	1	0
CDT-209	CIRCULAR	0.667000	0.000000	0.000000	0.000000	1	0
CDT-211	CIRCULAR	0.667000	0.000000	0.000000	0.000000	1	0
CDT-213	CIRCULAR	0.667000	0.000000	0.000000	0.000000	1	0
CDT-215	CIRCULAR	0.667000	0.000000	0.000000	0.000000	1	0
CDT-217	CIRCULAR	0.667000	0.000000	0.000000	0.000000	1	0
CDT-219	CIRCULAR	0.667000	0.000000	0.000000	0.000000	1	0
CDT-221	CIRCULAR	0.667000	0.000000	0.000000	0.000000	1	0
CDT-223	CIRCULAR	0.667000	0.000000	0.000000	0.000000	1	0
CDT-225	CIRCULAR	0.667000	0.000000	0.000000	0.000000	1	0
CDT-227	CIRCULAR	0.667000	0.000000	0.000000	0.000000	1	0
CDT-229	CIRCULAR	0.667000	0.000000	0.000000	0.000000	1	0
CDT-231	CIRCULAR	0.667000	0.000000	0.000000	0.000000	1	0
CDT-233	CIRCULAR	0.667000	0.000000	0.000000	0.000000	1	0
CDT-235	CIRCULAR	0.667000	0.000000	0.000000	0.000000	1	0
CDT-237	CIRCULAR	0.667000	0.000000	0.000000	0.000000	1	0
CDT-239	CIRCULAR	0.667000	0.000000	0.000000	0.000000	1	0
CDT-241	CIRCULAR	0.667000	0.000000	0.000000	0.000000	1	0
CDT-243	CIRCULAR	0.667000	0.000000	0.000000	0.000000	1	0
CDT-245	CIRCULAR	0.667000	0.000000	0.000000	0.000000	1	0
CDT-247	CIRCULAR	0.667000	0.000000	0.000000	0.000000	1	0
CDT-249	CIRCULAR	0.667000	0.000000	0.000000	0.000000	1	0
CDT-251	CIRCULAR	0.667000	0.000000	0.000000	0.000000	1	0
CDT-253	CIRCULAR	0.667000	0.000000	0.000000	0.000000	1	0
CDT-255	CIRCULAR	0.667000	0.000000	0.000000	0.000000	1	0
CDT-257	CIRCULAR	0.667000	0.000000	0.000000	0.000000	1	0
CDT-259	CIRCULAR	0.667000	0.000000	0.000000	0.000000	1	0
CDT-261	CIRCULAR	0.667000	0.000000	0.000000	0.000000	1	0
CDT-263	CIRCULAR	0.667000	0.000000	0.000000	0.000000	1	0
CDT-265	CIRCULAR	0.667000	0.000000	0.000000	0.000000	1	0
CDT-267	CIRCULAR	1.000000	0.000000	0.000000	0.000000	1	0
CSGM-A0090	CIRCULAR	1.000000	0.000000	0.000000	0.000000	1	0
CSGM-A0123	CIRCULAR	1.000000	0.000000	0.000000	0.000000	1	0
CSGM-A0153	CIRCULAR	1.000000	0.000000	0.000000	0.000000	1	0
CSGM-A0652	CIRCULAR	1.000000	0.000000	0.000000	0.000000	1	0
CSGM-A2422	CIRCULAR	1.000000	0.000000	0.000000	0.000000	1	0
CSGM-A4437	CIRCULAR	1.000000	0.000000	0.000000	0.000000	1	0
CSGM-A4438	CIRCULAR	1.000000	0.000000	0.000000	0.000000	1	0
CSGM-A4439	CIRCULAR	1.000000	0.000000	0.000000	0.000000	1	0
CSGM-A4740	CIRCULAR	1.000000	0.000000	0.000000	0.000000	1	0
CSGM-A6387	CIRCULAR	1.000000	0.000000	0.000000	0.000000	1	0
CSGM-A6942	CIRCULAR	1.000000	0.000000	0.000000	0.000000	1	0
CSGM-A7695	CIRCULAR	1.000000	0.000000	0.000000	0.000000	1	0
CSGM-A8656	CIRCULAR	1.000000	0.000000	0.000000	0.000000	1	0
CSGM-A8733	CIRCULAR	1.000000	0.000000	0.000000	0.000000	1	0
CSGM-A9385	CIRCULAR	1.000000	0.000000	0.000000	0.000000	1	0
CSGM-A9921	CIRCULAR	1.000000	0.000000	0.000000	0.000000	1	0
CSGM-B0006	CIRCULAR	1.000000	0.000000	0.000000	0.000000	1	0
CSGM-B1276	CIRCULAR	1.000000	0.000000	0.000000	0.000000	1	0
CSGM-B1369	CIRCULAR	1.000000	0.000000	0.000000	0.000000	1	0
CSGM-B2142	CIRCULAR	1.000000	0.000000	0.000000	0.000000	1	0
CSGM-B4179	CIRCULAR	1.000000	0.000000	0.000000	0.000000	1	0
CSGM-B4180	CIRCULAR	1.000000	0.000000	0.000000	0.000000	1	0
CSGM-B4815	CIRCULAR	1.000000	0.000000	0.000000	0.000000	1	0
CSGM-B4836	CIRCULAR	1.000000	0.000000	0.000000	0.000000	1	0
CSGM-B4890	CIRCULAR	1.000000	0.000000	0.000000	0.000000	1	0
CSGM-B4892	CIRCULAR	1.000000	0.000000	0.000000	0.000000	1	0
CSGM-B5182	CIRCULAR	1.000000	0.000000	0.000000	0.000000	1	0
CSGM-B5517	CIRCULAR	1.000000	0.000000	0.000000	0.000000	1	0
CSGM-B6416	CIRCULAR	1.000000	0.000000	0.000000	0.000000	1	0
CSGM-B6961	CIRCULAR	1.000000	0.000000	0.000000	0.000000	1	0
CSGM-B8811	CIRCULAR	1.000000	0.000000	0.000000	0.000000	1	0
CSGM-B9282	CIRCULAR	1.000000	0.000000	0.000000	0.000000	1	0
CSGM-C0817	CIRCULAR	1.000000	0.000000	0.000000	0.000000	1	0
CSGM-C1381	CIRCULAR	1.000000	0.000000	0.000000	0.000000	1	0
CSGM-C3182	CIRCULAR	1.000000	0.000000	0.000000	0.000000	1	0

[TRANSECTS]

[LOSSES]
CDT-207	0.000000	0.000000	0.000000	NO	0.000000
CDT-209	0.000000	0.000000	0.000000	NO	0.000000
CDT-211	0.000000	0.000000	0.000000	NO	0.000000
CDT-213	0.000000	0.000000	0.000000	NO	0.000000
CDT-215	0.000000	0.000000	0.000000	NO	0.000000
CDT-217	0.000000	0.000000	0.000000	NO	0.000000
CDT-219	0.000000	0.000000	0.000000	NO	0.000000
CDT-221	0.000000	0.000000	0.000000	NO	0.000000
CDT-223	0.000000	0.000000	0.000000	NO	0.000000
CDT-225	0.000000	0.000000	0.000000	NO	0.000000
CDT-227	0.000000	0.000000	0.000000	NO	0.000000
CDT-229	0.000000	0.000000	0.000000	NO	0.000000
CDT-231	0.000000	0.000000	0.000000	NO	0.000000
CDT-233	0.000000	0.000000	0.000000	NO	0.000000
CDT-235	0.000000	0.000000	0.000000	NO	0.000000
CDT-237	0.000000	0.000000	0.000000	NO	0.000000
CDT-239	0.000000	0.000000	0.000000	NO	0.000000
CDT-241	0.000000	0.000000	0.000000	NO	0.000000
CDT-243	0.000000	0.000000	0.000000	NO	0.000000
CDT-245	0.000000	0.000000	0.000000	NO	0.000000
CDT-247	0.000000	0.000000	0.000000	NO	0.000000
CDT-249	0.000000	0.000000	0.000000	NO	0.000000
CDT-251	0.000000	0.000000	0.000000	NO	0.000000
CDT-253	0.000000	0.000000	0.000000	NO	0.000000
CDT-255	0.000000	0.000000	0.000000	NO	0.000000
CDT-257	0.000000	0.000000	0.000000	NO	0.000000
CDT-259	0.000000	0.000000	0.000000	NO	0.000000
CDT-261	0.000000	0.000000	0.000000	NO	0.000000
CDT-263	0.000000	0.000000	0.000000	NO	0.000000
CDT-265	0.000000	0.000000	0.000000	NO	0.000000
CDT-267	0.000000	0.000000	0.000000	NO	0.000000
CSGM-A0090	0.000000	0.000000	0.000000	NO	0.000000
CSGM-A0123	0.000000	0.000000	0.000000	NO	0.000000
CSGM-A0153	0.000000	0.000000	0.000000	NO	0.000000
CSGM-A0652	0.000000	0.000000	0.000000	NO	0.000000
CSGM-A2422	0.000000	0.000000	0.000000	NO	0.000000
CSGM-A4437	0.000000	0.000000	0.000000	NO	0.000000
CSGM-A4438	0.000000	0.000000	0.000000	NO	0.000000
CSGM-A4439	0.000000	0.000000	0.000000	NO	0.000000
CSGM-A4740	0.000000	0.000000	0.000000	NO	0.000000
CSGM-A6387	0.000000	0.000000	0.000000	NO	0.000000
CSGM-A6942	0.000000	0.000000	0.000000	NO	0.000000
CSGM-A7695	0.000000	0.000000	0.000000	NO	0.000000
CSGM-A8656	0.000000	0.000000	0.000000	NO	0.000000
CSGM-A8733	0.000000	0.000000	0.000000	NO	0.000000
CSGM-A9385	0.000000	0.000000	0.000000	NO	0.000000
CSGM-A9921	0.000000	0.000000	0.000000	NO	0.000000
CSGM-B0006	0.000000	0.000000	0.000000	NO	0.000000
CSGM-B1276	0.000000	0.000000	0.000000	NO	0.000000
CSGM-B1369	0.000000	0.000000	0.000000	NO	0.000000
CSGM-B2142	0.000000	0.000000	0.000000	NO	0.000000
CSGM-B4179	0.000000	0.000000	0.000000	NO	0.000000
CSGM-B4180	0.000000	0.000000	0.000000	NO	0.000000
CSGM-B4815	0.000000	0.000000	0.000000	NO	0.000000
CSGM-B4836	0.000000	0.000000	0.000000	NO	0.000000
CSGM-B4890	0.000000	0.000000	0.000000	NO	0.000000
CSGM-B4892	0.000000	0.000000	0.000000	NO	0.000000
CSGM-B5182	0.000000	0.000000	0.000000	NO	0.000000
CSGM-B5517	0.000000	0.000000	0.000000	NO	0.000000
CSGM-B6416	0.000000	0.000000	0.000000	NO	0.000000
CSGM-B6961	0.000000	0.000000	0.000000	NO	0.000000
CSGM-B8811	0.000000	0.000000	0.000000	NO	0.000000
CSGM-B9282	0.000000	0.000000	0.000000	NO	0.000000
CSGM-C0817	0.000000	0.000000	0.000000	NO	0.000000
CSGM-C1381	0.000000	0.000000	0.000000	NO	0.000000
CSGM-C3182	0.000000	0.000000	0.000000	NO	0.000000

[CONTROLS]

[POLLUTANTS]

[LANDUSES]

[COVERAGES]

[BUILDUP]

[WASHOFF]

[TREATMENT]

[INFLOWS]
CSMH-A3531	FLOW	""	FLOW  1.0	1.000000
CSMH-A4219	FLOW	""	FLOW  1.0	1.000000
CSMH-A4220	FLOW	""	FLOW  1.0	1.000000
CSMH-A4221	FLOW	""	FLOW  1.0	1.000000
CSMH-A8211	FLOW	""	FLOW  1.0	1.000000
CSMH-A8213	FLOW	""	FLOW  1.0	1.000000
CSMH-B4715	FLOW	""	FLOW  1.0	1.000000
CSMH-B4716	FLOW	""	FLOW  1.0	1.000000
CSMH-B4718	FLOW	""	FLOW  1.0	1.000000
CSMH-B4719	FLOW	""	FLOW  1.0	1.000000
CSMH-B47417	FLOW	""	FLOW  1.0	1.000000
CSMH-C0669	FLOW	""	FLOW  1.0	1.000000
CSMH-C0670	FLOW	""	FLOW  1.0	1.000000
CSMH-C0671	FLOW	""	FLOW  1.0	1.000000
CSMH-C0672	FLOW	""	FLOW  1.0	1.000000
CSMH-C2522	FLOW	""	FLOW  1.0	1.000000
CSMH-C2679	FLOW	""	FLOW  1.0	1.000000
CSMH-S8212	FLOW	""	FLOW  1.0	1.000000
DC-1	FLOW	""	FLOW  1.0	1.000000
DC-10	FLOW	""	FLOW  1.0	1.000000
DC-11	FLOW	""	FLOW  1.0	1.000000
DC-12	FLOW	""	FLOW  1.0	1.000000
DC-13	FLOW	""	FLOW  1.0	1.000000
DC-14	FLOW	""	FLOW  1.0	1.000000
DC-15	FLOW	""	FLOW  1.0	1.000000
DC-16	FLOW	""	FLOW  1.0	1.000000
DC-17	FLOW	""	FLOW  1.0	1.000000
DC-18	FLOW	""	FLOW  1.0	1.000000
DC-19	FLOW	""	FLOW  1.0	1.000000
DC-2	FLOW	""	FLOW  1.0	1.000000
DC-20	FLOW	""	FLOW  1.0	1.000000
DC-21	FLOW	""	FLOW  1.0	1.000000
DC-22	FLOW	""	FLOW  1.0	1.000000
DC-23	FLOW	""	FLOW  1.0	1.000000
DC-24	FLOW	""	FLOW  1.0	1.000000
DC-25	FLOW	""	FLOW  1.0	1.000000
DC-26	FLOW	""	FLOW  1.0	1.000000
DC-27	FLOW	""	FLOW  1.0	1.000000
DC-28	FLOW	""	FLOW  1.0	1.000000
DC-29	FLOW	""	FLOW  1.0	1.000000
DC-3	FLOW	""	FLOW  1.0	1.000000
DC-30	FLOW	""	FLOW  1.0	1.000000
DC-31	FLOW	""	FLOW  1.0	1.000000
DC-4	FLOW	""	FLOW  1.0	1.000000
DC-5	FLOW	""	FLOW  1.0	1.000000
DC-6	FLOW	""	FLOW  1.0	1.000000
DC-7	FLOW	""	FLOW  1.0	1.000000
DC-8	FLOW	""	FLOW  1.0	1.000000
DC-9	FLOW	""	FLOW  1.0	1.000000
WOODLANDHILLS	FLOW	""	FLOW  1.0	1.000000

[DWF]
CSMH-A0919	FLOW	0.002785	"DC-01_WKDAY"	"DC-01_WKEND"	""	""
CSMH-A3531	FLOW	0.027000	"DC-03_WKDAY"	"DC-03_WKEND"	""	""
CSMH-A4219	FLOW	0.100000	"DC-02_WKDAY"	"DC-02_WKEND"	""	""
CSMH-A4220	FLOW	0.100000	"DC-02_WKDAY"	"DC-02_WKEND"	""	""
CSMH-A4221	FLOW	0.100000	"DC-02_WKDAY"	"DC-02_WKEND"	""	""
CSMH-A8211	FLOW	0.100000	"DC-02_WKDAY"	"DC-02_WKEND"	""	""
CSMH-A8213	FLOW	0.100000	"DC-02_WKDAY"	"DC-02_WKEND"	""	""
CSMH-B4715	FLOW	0.027000	"DC-03_WKDAY"	"DC-03_WKEND"	""	""
CSMH-B4716	FLOW	0.100000	"DC-02_WKDAY"	"DC-02_WKEND"	""	""
CSMH-B4718	FLOW	0.100000	"DC-02_WKDAY"	"DC-02_WKEND"	""	""
CSMH-B47417	FLOW	0.100000	"DC-02_WKDAY"	"DC-02_WKEND"	""	""
CSMH-C0669	FLOW	0.027000	"DC-03_WKDAY"	"DC-03_WKEND"	""	""
CSMH-C0670	FLOW	0.027000	"DC-03_WKDAY"	"DC-03_WKEND"	""	""
CSMH-C0671	FLOW	0.027000	"DC-03_WKDAY"	"DC-03_WKEND"	""	""
CSMH-C0672	FLOW	0.100000	"DC-02_WKDAY"	"DC-02_WKEND"	""	""
CSMH-C2522	FLOW	0.001692	"DC-01_WKDAY"	"DC-01_WKEND"	""	""
CSMH-C2679	FLOW	0.027000	"DC-03_WKDAY"	"DC-03_WKEND"	""	""
CSMH-S8212	FLOW	0.100000	"DC-02_WKDAY"	"DC-02_WKEND"	""	""
DC-1	FLOW	0.027000	"DC-03_WKDAY"	"DC-03_WKEND"	""	""
DC-10	FLOW	0.027000	"DC-03_WKDAY"	"DC-03_WKEND"	""	""
DC-11	FLOW	0.027000	"DC-03_WKDAY"	"DC-03_WKEND"	""	""
DC-12	FLOW	0.027000	"DC-03_WKDAY"	"DC-03_WKEND"	""	""
DC-13	FLOW	0.027000	"DC-03_WKDAY"	"DC-03_WKEND"	""	""
DC-14	FLOW	0.027000	"DC-03_WKDAY"	"DC-03_WKEND"	""	""
DC-15	FLOW	0.027000	"DC-03_WKDAY"	"DC-03_WKEND"	""	""
DC-16	FLOW	0.027000	"DC-03_WKDAY"	"DC-03_WKEND"	""	""
DC-17	FLOW	0.027000	"DC-03_WKDAY"	"DC-03_WKEND"	""	""
DC-18	FLOW	0.027000	"DC-03_WKDAY"	"DC-03_WKEND"	""	""
DC-19	FLOW	0.027000	"DC-03_WKDAY"	"DC-03_WKEND"	""	""
DC-2	FLOW	0.027000	"DC-03_WKDAY"	"DC-03_WKEND"	""	""
DC-20	FLOW	0.027000	"DC-03_WKDAY"	"DC-03_WKEND"	""	""
DC-21	FLOW	0.027000	"DC-03_WKDAY"	"DC-03_WKEND"	""	""
DC-22	FLOW	0.027000	"DC-03_WKDAY"	"DC-03_WKEND"	""	""
DC-23	FLOW	0.027000	"DC-03_WKDAY"	"DC-03_WKEND"	""	""
DC-24	FLOW	0.027000	"DC-03_WKDAY"	"DC-03_WKEND"	""	""
DC-25	FLOW	0.027000	"DC-03_WKDAY"	"DC-03_WKEND"	""	""
DC-26	FLOW	0.027000	"DC-03_WKDAY"	"DC-03_WKEND"	""	""
DC-27	FLOW	0.027000	"DC-03_WKDAY"	"DC-03_WKEND"	""	""
DC-28	FLOW	0.027000	"DC-03_WKDAY"	"DC-03_WKEND"	""	""
DC-29	FLOW	0.027000	"DC-03_WKDAY"	"DC-03_WKEND"	""	""
DC-3	FLOW	0.027000	"DC-03_WKDAY"	"DC-03_WKEND"	""	""
DC-30	FLOW	0.027000	"DC-03_WKDAY"	"DC-03_WKEND"	""	""
DC-31	FLOW	0.027000	"DC-03_WKDAY"	"DC-03_WKEND"	""	""
DC-4	FLOW	0.027000	"DC-03_WKDAY"	"DC-03_WKEND"	""	""
DC-5	FLOW	0.027000	"DC-03_WKDAY"	"DC-03_WKEND"	""	""
DC-6	FLOW	0.027000	"DC-03_WKDAY"	"DC-03_WKEND"	""	""
DC-7	FLOW	0.027000	"DC-03_WKDAY"	"DC-03_WKEND"	""	""
DC-8	FLOW	0.027000	"DC-03_WKDAY"	"DC-03_WKEND"	""	""
DC-9	FLOW	0.027000	"DC-03_WKDAY"	"DC-03_WKEND"	""	""

[RDII]

[LOADINGS]

[CURVES]
; 
21STSTREET	PUMP3	45.000000	1200.000000
21STSTREET	72.000000	900.000000
21STSTREET	85.000000	600.000000
21STSTREET	97.000000	300.000000
21STSTREET	117.000000	0.000000
; 
BATTLE	PUMP3	100.000000	2500.000000
BATTLE	118.000000	2000.000000
BATTLE	140.000000	1500.000000
BATTLE	162.000000	1000.000000
BATTLE	185.000000	500.000000
BATTLE	215.000000	0.000000
; 
BIBB	PUMP3	55.000000	1200.000000
BIBB	70.000000	1000.000000
BIBB	82.000000	800.000000
BIBB	92.000000	600.000000
BIBB	104.000000	400.000000
BIBB	115.000000	200.000000
BIBB	128.000000	0.000000
; 
DOZIER	PUMP3	25.000000	1200.000000
DOZIER	45.000000	1000.000000
DOZIER	63.000000	800.000000
DOZIER	78.000000	600.000000
DOZIER	92.000000	400.000000
DOZIER	105.000000	200.000000
DOZIER	120.000000	0.000000
; 
DOZIER2038	PUMP3	0.000000	1000.000000
DOZIER2038	95.000000	694.000000
DOZIER2038	167.000000	0.000000
; 
EASTLINDSEY	PUMP3	20.750000	240.000000
EASTLINDSEY	25.000000	160.000000
EASTLINDSEY	28.250000	80.000000
EASTLINDSEY	31.750000	0.000000
; 
EXETERCOURT	PUMP3	10.100000	5667.000000
EXETERCOURT	32.300000	4750.000000
EXETERCOURT	46.800000	3861.000000
EXETERCOURT	70.200000	2298.000000
EXETERCOURT	73.500000	1969.000000
EXETERCOURT	89.600000	926.000000
EXETERCOURT	108.100000	45.000000
EXETERCOURT	110.000000	0.000000
; 
HEIFERHORN	PUMP3	7.000000	700.000000
HEIFERHORN	16.000000	600.000000
HEIFERHORN	23.000000	500.000000
HEIFERHORN	28.000000	400.000000
HEIFERHORN	35.000000	300.000000
HEIFERHORN	39.000000	200.000000
HEIFERHORN	45.000000	100.000000
HEIFERHORN	52.000000	0.000000
; 
HEIFERHORN2	PUMP3	12.000000	2500.000000
HEIFERHORN2	23.000000	2000.000000
HEIFERHORN2	29.000000	1500.000000
HEIFERHORN2	44.000000	1000.000000
HEIFERHORN2	53.000000	500.000000
HEIFERHORN2	67.000000	0.000000
; 
LAKEOLIVER	PUMP3	42.000000	2400.000000
LAKEOLIVER	74.000000	2000.000000
LAKEOLIVER	102.000000	1600.000000
LAKEOLIVER	122.000000	1200.000000
LAKEOLIVER	142.000000	800.000000
LAKEOLIVER	160.000000	400.000000
LAKEOLIVER	178.000000	0.000000
; 
LS#1	PUMP3	40.000000	4800.000000
LS#1	60.000000	3800.000000
LS#1	80.000000	2600.000000
LS#1	100.000000	1250.000000
LS#1	120.000000	0.000000
; 
LS11	PUMP2	2.000000	0.000000
LS11	4.110000	270.000000
LS11	5.190000	486.000000
; 
LS2	PUMP3	0.000000	5200.000000
LS2	170.000000	2600.000000
LS2	285.000000	0.000000
; 
LS24	PUMP3	32.000000	2000.000000
LS24	48.000000	1500.000000
LS24	62.000000	1000.000000
LS24	88.000000	500.000000
LS24	112.000000	0.000000
; 
LS2SMALL	PUMP3	0.000000	2400.000000
LS2SMALL	120.000000	1200.000000
LS2SMALL	200.000000	0.000000
; 
LS3	PUMP3	168.840000	2218.000000
LS3	178.850000	1984.500000
LS3	189.450000	1744.200000
LS3	199.750000	1512.000000
LS3	212.870000	1221.300000
LS3	229.150000	975.800000
LS3	236.290000	813.200000
LS3	252.150000	567.500000
LS3	268.060000	295.900000
LS3	279.150000	0.000000
; 
LS41	PUMP3	25.000000	1000.000000
LS41	42.000000	800.000000
LS41	58.000000	600.000000
LS41	75.000000	400.000000
LS41	92.000000	200.000000