[TITLE]
;;Project Title/Notes

[OPTIONS]
;;Option             Value
FLOW_UNITS           CFS
INFILTRATION         CURVE_NUMBER
FLOW_ROUTING         DYNWAVE
LINK_OFFSETS         DEPTH
MIN_SLOPE            0
ALLOW_PONDING        YES
SKIP_STEADY_STATE    NO

IGNORE_SNOWMELT      YES
IGNORE_GROUNDWATER   YES
IGNORE_QUALITY       YES
START_DATE           01/01/2002
START_TIME           00:00:00
REPORT_START_DATE    01/01/2002
REPORT_START_TIME    00:00:00
END_DATE             01/03/2002
END_TIME             06:00:00
SWEEP_START          01/01
SWEEP_END            12/31
DRY_DAYS             3.000000
REPORT_STEP          00:05:00
WET_STEP             00:05:00
DRY_STEP             01:00:00
ROUTING_STEP         0:00:10 

INERTIAL_DAMPING     NONE
NORMAL_FLOW_LIMITED  SLOPE
FORCE_MAIN_EQUATION  H-W
VARIABLE_STEP        0.75
LENGTHENING_STEP     15
MIN_SURFAREA         12.557
MAX_TRIALS           4
HEAD_TOLERANCE       0.005000
SYS_FLOW_TOL         5
LAT_FLOW_TOL         5
MINIMUM_STEP         0
THREADS              1

[EVAPORATION]
;;Data Source    Parameters
;;-------------- ----------------
CONSTANT         0.0
DRY_ONLY         NO

[RAINGAGES]
;;Name           Format    Interval SCF      Source    
;;-------------- --------- ------ ------ ----------
100_YEAR         CUMULATIVE 0.100000 1.000000 TIMESERIES 100_YEAR        
10_YEAR          CUMULATIVE 0.100000 1.000000 TIMESERIES 10_YEAR         
25_YEAR          CUMULATIVE 0.100000 1.000000 TIMESERIES 25_YEAR         
2_YEAR           CUMULATIVE 0.100000 1.000000 TIMESERIES 2_YEAR          
50_YEAR          CUMULATIVE 0.100000 1.000000 TIMESERIES 50_YEAR         
5_YEAR           CUMULATIVE 0.100000 1.000000 TIMESERIES 5_YEAR          

[SUBCATCHMENTS]
;;Name           Rain Gage        Outlet           Area     %Imperv  Width    %Slope   CurbLen  SnowPack        
;;-------------- ---------------- ---------------- -------- -------- -------- -------- -------- ----------------
ROUND_ABOUT      50_YEAR          JUNC_ROUND       10.900000 25.000000 500.000000 0.010000 0.000000                 
SUB_03           50_YEAR          STOR_03          29.170000 25.000000 500.000000 0.015000 0.000000                 
SUB_1            50_YEAR          STOR_1           204.000000 25.000000 500.000000 0.030000 0.000000                 
SUB_10           50_YEAR          STOR_10          26.684106 25.000000 500.000000 0.020000 0.000000                 
SUB_13           50_YEAR          JUNC_13          15.666785 25.000000 500.000000 0.005000 0.000000                 
SUB_14           50_YEAR          STOR_14          9.461155 25.000000 500.000000 0.020000 0.000000                 
SUB_15           50_YEAR          STOR_15          5.010000 25.000000 500.000000 0.010000 0.000000                 
SUB_17           50_YEAR          JUNC_17          14.000000 25.000000 500.000000 0.010000 0.000000                 
SUB_18           50_YEAR          JUNC_18          5.440000 25.000000 500.000000 0.002000 0.000000                 
SUB_19           50_YEAR          STOR_19          3.200000 25.000000 500.000000 0.010000 0.000000                 
SUB_20           50_YEAR          STOR_20          9.500000 25.000000 500.000000 0.010000 0.000000                 
SUB_21           50_YEAR          STOR_21          14.500000 25.000000 500.000000 0.010000 0.000000                 
SUB_22           50_YEAR          JUNC_PROP_2      27.600000 25.000000 500.000000 0.020000 0.000000                 
SUB_23           50_YEAR          JUNC_23          5.050000 25.000000 500.000000 0.020000 0.000000                 
SUB_23-2         50_YEAR          JUNC_23          8.530000 25.000000 500.000000 0.010000 0.000000                 
SUB_24           50_YEAR          JUNC_24          26.950000 25.000000 500.000000 0.010000 0.000000                 
SUB_25           50_YEAR          JUNC_25          6.700000 25.000000 500.000000 0.010000 0.000000                 
SUB_26           50_YEAR          JUNC_26          19.300000 25.000000 500.000000 0.010000 0.000000                 
SUB_28           50_YEAR          JUNC_28          6.550000 25.000000 500.000000 0.010000 0.000000                 
SUB_29           50_YEAR          STOR_29          1.600000 25.000000 500.000000 0.010000 0.000000                 
SUB_30           50_YEAR          STOR_30          2.200000 25.000000 500.000000 0.010000 0.000000                 
SUB_31           50_YEAR          STOR_31          90.772342 25.000000 500.000000 0.001000 0.000000                 
SUB_32           50_YEAR          STOR_32          25.828572 25.000000 500.000000 0.010000 0.000000                 
SUB_33           50_YEAR          STOR_33          58.468205 25.000000 500.000000 0.001000 0.000000                 
SUB_5            50_YEAR          STOR_5           45.725613 25.000000 500.000000 0.007000 0.000000                 
SUB_6            50_YEAR          STOR_6           5.650000 25.000000 500.000000 0.020000 0.000000                 
SUB_7            50_YEAR          STOR_7           4.550000 25.000000 500.000000 0.010000 0.000000                 
SUB_8            50_YEAR          JUNC_8           4.800000 25.000000 500.000000 0.010000 0.000000                 
SUB_9            50_YEAR          JUNC_PROP_1      23.450000 25.000000 500.000000 0.010000 0.000000                 

[SUBAREAS]
;;Subcatchment   N-Imperv   N-Perv     S-Imperv   S-Perv     PctZero    RouteTo    PctRouted 
;;-------------- ---------- ---------- ---------- ---------- ---------- ---------- ----------
ROUND_ABOUT      0.100000   0.001000   0.050000   0.050000   25.000000  OUTLET    
SUB_03           0.100000   0.001000   0.050000   0.050000   25.000000  OUTLET    
SUB_1            0.100000   0.001000   0.050000   0.050000   25.000000  OUTLET    
SUB_10           0.100000   0.001000   0.050000   0.050000   25.000000  OUTLET    
SUB_13           0.100000   0.001000   0.050000   0.050000   25.000000  OUTLET    
SUB_14           0.100000   0.001000   0.050000   0.050000   25.000000  OUTLET    
SUB_15           0.100000   0.001000   0.050000   0.050000   25.000000  OUTLET    
SUB_17           0.100000   0.001000   0.050000   0.050000   25.000000  OUTLET    
SUB_18           0.100000   0.001000   0.050000   0.050000   25.000000  OUTLET    
SUB_19           0.100000   0.001000   0.050000   0.050000   25.000000  OUTLET    
SUB_20           0.100000   0.001000   0.050000   0.050000   25.000000  OUTLET    
SUB_21           0.100000   0.001000   0.050000   0.050000   25.000000  OUTLET    
SUB_22           0.100000   0.001000   0.050000   0.050000   25.000000  OUTLET    
SUB_23           0.100000   0.001000   0.050000   0.050000   25.000000  OUTLET    
SUB_23-2         0.100000   0.001000   0.050000   0.050000   25.000000  OUTLET    
SUB_24           0.100000   0.001000   0.050000   0.050000   25.000000  OUTLET    
SUB_25           0.100000   0.001000   0.050000   0.050000   25.000000  OUTLET    
SUB_26           0.100000   0.001000   0.050000   0.050000   25.000000  OUTLET    
SUB_28           0.100000   0.001000   0.050000   0.050000   25.000000  OUTLET    
SUB_29           0.100000   0.001000   0.050000   0.050000   25.000000  OUTLET    
SUB_30           0.100000   0.001000   0.050000   0.050000   25.000000  OUTLET    
SUB_31           0.100000   0.001000   0.050000   0.050000   25.000000  OUTLET    
SUB_32           0.100000   0.001000   0.050000   0.050000   25.000000  OUTLET    
SUB_33           0.100000   0.001000   0.050000   0.050000   25.000000  OUTLET    
SUB_5            0.100000   0.001000   0.050000   0.050000   25.000000  OUTLET    
SUB_6            0.100000   0.001000   0.050000   0.050000   25.000000  OUTLET    
SUB_7            0.100000   0.001000   0.050000   0.050000   25.000000  OUTLET    
SUB_8            0.100000   0.001000   0.050000   0.050000   25.000000  OUTLET    
SUB_9            0.100000   0.001000   0.050000   0.050000   25.000000  OUTLET    

[INFILTRATION]
;;Subcatchment   CurveNum              DryTime   
;;-------------- ---------- ---------- ----------
ROUND_ABOUT      68.000000  0.500000   75.000000 
SUB_03           68.000000  0.500000   75.000000 
SUB_1            68.000000  0.500000   75.000000 
SUB_10           68.000000  0.500000   75.000000 
SUB_13           68.000000  0.500000   75.000000 
SUB_14           68.000000  0.500000   75.000000 
SUB_15           68.000000  0.500000   75.000000 
SUB_17           68.000000  0.500000   75.000000 
SUB_18           68.000000  0.500000   75.000000 
SUB_19           68.000000  0.500000   75.000000 
SUB_20           68.000000  0.500000   75.000000 
SUB_21           68.000000  0.500000   75.000000 
SUB_22           68.000000  0.500000   75.000000 
SUB_23           68.000000  0.500000   75.000000 
SUB_23-2         68.000000  0.500000   75.000000 
SUB_24           68.000000  0.500000   75.000000 
SUB_25           68.000000  0.500000   75.000000 
SUB_26           68.000000  0.500000   75.000000 
SUB_28           68.000000  0.500000   75.000000 
SUB_29           68.000000  0.500000   75.000000 
SUB_30           68.000000  0.500000   75.000000 
SUB_31           68.000000  0.500000   75.000000 
SUB_32           68.000000  0.500000   75.000000 
SUB_33           68.000000  0.500000   75.000000 
SUB_5            68.000000  0.500000   75.000000 
SUB_6            78.000000  0.500000   75.000000 
SUB_7            78.000000  0.500000   75.000000 
SUB_8            68.000000  0.500000   75.000000 
SUB_9            68.000000  0.500000   75.000000 

[JUNCTIONS]
;;Name           Elevation  MaxDepth   InitDepth  SurDepth   Aponded   
;;-------------- ---------- ---------- ---------- ---------- ----------
JUNC_04          1192.420000 3.880000   0.000000   0.000000   1000.000000
JUNC_11          1192.390000 4.830000   0.000000   0.000000   100.000000
JUNC_12          1193.810000 4.640000   0.000000   0.000000   100.000000
JUNC_13          1194.910000 6.140000   0.000000   0.000000   100.000000
JUNC_16          1196.090000 6.080000   0.000000   0.000000   100.000000
JUNC_17          1196.820000 7.200000   0.000000   0.000000   100.000000
JUNC_18          1199.720000 6.880000   0.000000   0.000000   100.000000
JUNC_23          1190.640000 5.360000   0.000000   0.000000   100.000000
JUNC_24          1192.160000 8.140000   0.000000   0.000000   100.000000
JUNC_25          1195.280000 7.110000   0.000000   0.000000   100.000000
JUNC_26          1200.000000 3.500000   0.000000   0.000000   0.000000  
JUNC_27          1197.000000 3.600000   0.000000   0.000000   100.000000
JUNC_28          1202.000000 7.820000   0.000000   0.000000   100.000000
JUNC_7           1188.340000 11.020000  0.000000   0.000000   0.000000  
JUNC_8           1185.800000 10.970000  0.000000   0.000000   1000.000000
JUNC_PROP_1      1184.500000 6.800000   0.000000   0.000000   1000.000000
JUNC_PROP_2      1185.910000 7.210000   0.000000   0.000000   100.000000
JUNC_ROUND       1190.810000 7.690000   0.000000   0.000000   100.000000
JUNC_ROUND_2     1189.800000 10.200000  0.000000   0.000000   100.000000

[OUTFALLS]
;;Name           Elevation  Type       Stage Data       Gated    Route To        
;;-------------- ---------- ---------- ---------------- -------- ----------------
DS_OUTFALL       1180.000000 FIXED      1180.000000      NO                       
EOF_OUTFALL      0.000000   FREE                        NO                       
OUTFALL_2        1192.000000 FREE                        NO                       
OUTFALL_3        1200.000000 FREE                        NO                       
OUTFALL_4        0.000000   FREE                        NO                       

[STORAGE]
;;Name           Elev.    MaxDepth   InitDepth  Shape      Curve Name/Params            N/A      Fevap    Psi      Ksat     IMD     
;;-------------- -------- ---------- ----------- ---------- ---------------------------- -------- --------          -------- --------
OUTFALL_1        1180.000000 13.510000  2.200000   TABULAR    OUTLET_ENERGY_DISS           0.000000 0.000000 0.000000 1.000000 0.000000
STOR_03          1192.000000 6.000000   0.000000   TABULAR    STOR_3                       0.000000 0.000000 0.000000 1.300000 0.000000
STOR_1           1193.000000 5.000000   0.000000   TABULAR    STOR_1                       0.000000 0.000000 0.000000 1.300000 0.000000
STOR_10          1191.450000 2.362000   0.000000   TABULAR    CURVE-5                      0.000000 0.000000 0.000000 1.300000 0.000000
STOR_14          1197.000000 6.000000   0.000000   TABULAR    STOR_14                      0.000000 0.000000 0.000000 1.300000 0.000000
STOR_15          1199.000000 4.000000   0.000000   TABULAR    STOR_15                      0.000000 0.000000 0.000000 1.300000 0.000000
STOR_19          1204.000000 5.000000   0.000000   TABULAR    STOR_19                      0.000000 0.000000
STOR_2           1193.000000 5.000000   0.000000   TABULAR    STOR_2                       0.000000 0.000000 0.000000 1.300000 0.000000
STOR_20          1203.000000 6.000000   0.000000   TABULAR    STOR_20                      0.000000 0.000000 0.000000 1.300000 0.000000
STOR_21          1204.000000 5.000000   0.000000   TABULAR    STOR_21                      0.000000 0.000000 0.000000 1.300000 0.000000
STOR_29          1204.000000 7.000000   0.000000   TABULAR    STOR_29                      0.000000 0.000000 0.000000 1.300000 0.000000
STOR_30          1204.000000 9.000000   0.000000   TABULAR    STOR_30                      0.000000 0.000000 0.000000 1.300000 0.000000
STOR_31          1196.000000 1206.000000 0.000000   TABULAR    CURVE-13                     0.000000 0.000000 0.000000 0.800000 0.000000
STOR_32          1197.500000 1211.300000 0.000000   TABULAR    CURVE-11                     0.000000 0.000000 0.000000 0.800000 0.000000
STOR_33          1199.000000 1211.800000 0.000000   TABULAR    CURVE-15                     0.000000 0.000000 0.000000 0.800000 0.000000
STOR_5           1191.500000 5.500000   0.000000   TABULAR    CURVE-1                      0.000000 0.000000 0.000000 1.300000 0.000000
STOR_6           1191.000000 7.000000   0.000000   TABULAR    STOR_6                       0.000000 0.000000 0.000000 1.300000 0.000000
STOR_7           1192.000000 5.000000   0.000000   TABULAR    CURVE-3                      0.000000 0.000000
STOR_ROUND_OF    1198.200000 1221.000000 0.000000   TABULAR    CURVE-9                      0.000000 0.000000 0.000000 0.300000 0.000000

[CONDUITS]
;;Name           From Node        To Node          Length     Roughness  InOffset   OutOffset  InitFlow   MaxFlow   
;;-------------- ---------------- ---------------- ---------- ---------- ---------- ---------- ---------- ----------
; 18
CULV_20          STOR_20          STOR_19          341.415341 0.013000   3.200000   3.500000   0.000000   5000.000000
; 24
CULV_21          STOR_21          STOR_19          257.167544 0.013000   0.000000   0.000000   0.000000   5000.000000
; 18
CULV_30          STOR_30          STOR_29          257.313123 0.013000   2.000000   2.000000   0.000000   5000.000000
; 24
CULV_31-1        STOR_31          STOR_1           120.000000 0.013000   0.500000   2.500000   0.000000   0.000000  
; 12
CULV_31-2        STOR_31          STOR_14          85.000000  0.013000   5.100000   1.090000   0.000000   0.000000  
; 12
CULV_31-3        STOR_31          STOR_32          70.000000  0.013000   3.000000   1.000000   0.000000   5000.000000
; 24
CULV_32          STOR_32          STOR_31          70.000000  0.013000   1.500000   2.800000   0.000000   0.000000  
; 24
CULV_33          STOR_33          STOR_31          120.000000 0.013000   0.400000   2.900000   0.000000   5000.000000
; 36
CULV_5           JUNC_04          STOR_5           525.000000 0.030000   0.000000   0.300000   0.000000   5000.000000
; 24
CULV_STOR1-STOR2 STOR_1           STOR_2           50.000000  0.013000   2.200000   2.150000   0.000000   500.000000
; 28
CULV_STOR2-STOR3 STOR_2           STOR_03          360.000000 0.032000   3.000000   1.300000   0.000000   0.000000  
; 36
DITCH_26         JUNC_26          JUNC_27          766.958070 0.013000   0.000000   0.000000   0.000000   7500.000000
; 30
GOLF_COURSE_CULV OUTFALL_1        DS_OUTFALL       200.000000 0.035000   0.600000   0.600000   0.000000   2000.000000
; 24
GOLF_COURSE_EOF  OUTFALL_1        EOF_OUTFALL      1247.980878 0.013000   8.200000   1181.000000 0.000000   5000.000000
; 12
JUNC_10_EOF      STOR_10          STOR_6           392.298850 0.013000   2.150000   0.000000   0.000000   5000.000000
; 12
JUNC_11_EOF      JUNC_11          STOR_10          460.618194 0.013000   4.830000   0.000000   0.000000   5000.000000
; 12
JUNC_12_EOF      JUNC_12          JUNC_11          682.189792 0.013000   4.640000   4.830000   0.000000   5000.000000
; 12
JUNC_13_EOF      JUNC_13          JUNC_12          580.415566 0.013000   6.140000   4.640000   0.000000   5000.000000
; 12
JUNC_16_EOF      JUNC_16          JUNC_13          315.747088 0.013000   6.080000   6.140000   0.000000   5000.000000
; 12
JUNC_17_EOF      JUNC_17          JUNC_13          675.728386 0.013000   7.200000   6.140000   0.000000   5000.000000
; 12
JUNC_18_EOF      JUNC_18          JUNC_17          1079.261870 0.035000   6.780000   7.200000   0.000000   5000.000000
; 12
JUNC_22_EOF      JUNC_PROP_2      OUTFALL_2        130.211147 0.020000   7.210000   0.000000   0.000000   5000.000000
; 12
JUNC_23_EOF      JUNC_23          JUNC_PROP_2      1204.038158 0.023000   5.360000   7.210000   0.000000   5000.000000
; 12
JUNC_24_EOF      JUNC_24          OUTFALL_3        319.020885 0.013000   8.140000   0.000000   0.000000   0.000000  
; 12
JUNC_27_EOF      JUNC_27          JUNC_23          1235.390735 0.013000   3.600000   5.360000   0.000000   5000.000000
; 12
JUNC_28_EOF      JUNC_28          JUNC_26          1339.610784 0.013000   7.820000   3.500000   0.000000   5000.000000
; 12
JUNC_ROUND_EOF   JUNC_ROUND       STOR_ROUND_OF    120.188069 0.013000   7.390000   0.300000   0.000000   5025.000000
; 28
STM_03-04        STOR_03          JUNC_04          850.000000 0.035000   2.550000   0.000000   0.000000   1000.000000
; 36
STM_05           STOR_5           STOR_6           787.880204 0.013000   1.050000   0.010000   0.000000   6000.000000
; 36
STM_10           STOR_10          STOR_6           373.366573 0.013000   0.050000   0.000000   0.000000   2000.000000
; 33
STM_11           JUNC_11          STOR_10          454.201867 0.013000   0.000000   0.000000   0.000000   0.000000  
; 30
STM_12           JUNC_12          JUNC_11          645.691255 0.013000   0.000000   0.000000   0.000000   5000.000000
; 24
STM_13           JUNC_13          JUNC_12          542.707723 0.013000   0.000000   0.000000   0.000000   5000.000000
; 15
STM_14           STOR_14          JUNC_13          1168.241167 0.013000   2.000000   0.000000   0.000000   5000.000000
; 24
STM_16           JUNC_16          JUNC_13          305.142568 0.013000   0.000000   0.000000   0.000000   5000.000000
; 24
STM_17           JUNC_17          JUNC_16          358.736629 0.013000   0.000000   0.000000   0.000000   5000.000000
; 21
STM_18           JUNC_18          JUNC_17          968.755252 0.013000   0.000000   0.000000   0.000000   5000.000000
; 15
STM_19           STOR_19          JUNC_18          1062.038650 0.013000   2.600000   0.000000   0.000000   5000.000000
; 54
STM_22           JUNC_PROP_2      JUNC_PROP_1      477.433712 0.013000   0.000000   0.000000   0.000000   10000.000000
; 30
STM_23           JUNC_23          JUNC_PROP_2      1197.962411 0.013000   0.000000   0.000000   0.000000   5000.000000
; 30
STM_24           JUNC_24          JUNC_PROP_2      1246.197217 0.013000   0.000000   1.000000   0.000000   0.000000  
; 30
STM_25           JUNC_25          JUNC_24          486.397019 0.013000   0.000000   0.000000   0.000000   5000.000000
; 15
STM_27           JUNC_27          JUNC_25          617.452537 0.013000   0.000000   0.000000   0.000000   5000.000000
; 21
STM_28           JUNC_28          JUNC_26          1196.062806 0.013000   0.000000   0.000000   0.000000   7500.000000
; 36
STM_6            STOR_6           JUNC_ROUND_2     627.633523 0.013000   0.000000   0.000000   0.000000   5000.000000
; 36
STM_7            JUNC_7           JUNC_8           782.319224 0.013000   0.000000   -0.010000  0.000000   5000.000000
; 24
STM_JUNC_ROUND   JUNC_ROUND       JUNC_ROUND_2     412.088408 0.013000   -0.010000  0.000000   0.000000   5000.000000
; 36
STM_JUNC_ROUND_2 JUNC_ROUND_2     JUNC_7           198.450777 0.012000   0.000000   0.000000   0.000000   5000.000000
; 54
STM_PROP_1       JUNC_PROP_1      OUTFALL_1        473.165001 0.013000   0.000000   2.200000   0.000000   5000.000000
; 48
STM_PROP_2       JUNC_8           OUTFALL_1        927.174099 0.013000   0.000000   2.410000   0.000000   5000.000000
; 12
STOR_14_EOF      STOR_14          JUNC_13          1142.041798 0.035000   5.500000   6.140000   0.000000   10000.000000
; 12
STOR_15_EOF      STOR_15          JUNC_13          285.320882 0.013000   2.500000   6.140000   0.000000   0.000000  
; 15
STOR_15_OUTLET   STOR_15          JUNC_16          96.587243  0.013000   2.900000   0.910000   0.000000   3500.000000
; 12
STOR_19_EOF      STOR_19          JUNC_18          1073.493214 0.035000   4.200000   6.880000   0.000000   5000.000000
; 12
STOR_20_EOF      STOR_20          STOR_19          380.446241 0.035000   5.650000   4.000000   0.000000   10000.000000
; 12
STOR_21_EOF      STOR_21          STOR_19          265.590811 0.020000   4.000000   3.000000   0.000000   5000.000000
; 15
STOR_28_OUT      STOR_29          JUNC_28          752.312822 0.013000   2.700000   0.000000   0.000000   5000.000000
; 36
STOR_29_EOF      STOR_29          JUNC_27          2637.331192 0.035000   5.850000   0.000000   0.000000   7500.000000
; 12
STOR_30_EOF      STOR_30          STOR_29          245.696918 0.013000   8.500000   2.000000   0.000000   10000.000000
; 12
STOR_31_EOF-1    STOR_31          STOR_1           2089.474595 0.013000   4.500000   0.000000   0.000000   5000.000000
; 12
STOR_32-EOF      STOR_32          STOR_31          150.000000 0.013000   7.000000   4.000000   0.000000   5000.000000
; 12
STOR_33_EOF      STOR_33          STOR_31          300.000000 0.013000   4.000000   4.000000   0.000000   5000.000000
; 12
STOR_7_OUT       STOR_7           JUNC_7           30.000000  0.013000   0.700000   4.130000   0.000000   0.000000  
; 12
STOR_ROUND_EOF   STOR_ROUND_OF    STOR_6           100.000000 0.013000   1.800000   0.000000   0.000000   5000.000000

[WEIRS]
;;Name           From Node        To Node          Type         CrestHt    Qcoeff     Gated    EndCon   EndCoeff   Surcharge  RoadWidth  RoadSurf  
;;-------------- ---------------- ---------------- ------------ ---------- ---------- -------- -------- ---------- ---------- ---------- ----------
EOF_STOR2-STOR3  STOR_2           STOR_03          TRANSVERSE   5.500000   3.330000   NO       2        0.000000   NO        
STOR_6_OF        STOR_6           STOR_7           TRANSVERSE   6.000000   3.330000   NO       0        0.000000   NO        
WEIR_STOR1-STOR2 STOR_1           STOR_2           TRANSVERSE   5.500000   3.330000   NO       2        0.000000   NO        

[XSECTIONS]
;;Link           Shape        Geom1            Geom2      Geom3      Geom4      Barrels    Culvert   
;;-------------- ------------ ---------------- ---------- ---------- ---------- ---------- ----------
CULV_20          CIRCULAR     1.500000         0.000000   0.000000   0.000000   1          0         
CULV_21          CIRCULAR     2.000000         0.000000   0.000000   0.000000   1          0         
CULV_30          CIRCULAR     1.500000         0.000000   0.000000   0.000000   1          0         
CULV_31-1        CIRCULAR     2.000000         0.000000   0.000000   0.000000   1          0         
CULV_31-2        CIRCULAR     1.000000         0.000000   0.000000   0.000000   1          0         
CULV_31-3        CIRCULAR     1.000000         0.000000   0.000000   0.000000   1          0         
CULV_32          CIRCULAR     2.000000         0.000000   0.000000   0.000000   1          0         
CULV_33          CIRCULAR     2.000000         0.000000   0.000000   0.000000   1          0         
CULV_5           TRAPEZOIDAL  3.000000         10.000000  3.000000   3.000000   1          0         
CULV_STOR1-STOR2 CIRCULAR     2.000000         0.000000   0.000000   0.000000   1          0         
CULV_STOR2-STOR3 CIRCULAR     2.333333         0.000000   0.000000   0.000000   1          0         
DITCH_26         TRAPEZOIDAL  3.000000         15.000000  3.000000   3.000000   1          0         
GOLF_COURSE_CULV CIRCULAR     2.500000         0.000000   0.000000   0.000000   1          0         
GOLF_COURSE_EOF  RECT_OPEN    2.000000         35.000000  0.000000   0.000000   1          0         
JUNC_10_EOF      RECT_OPEN    1.000000         50.000000  0.000000   0.000000   1          0         
JUNC_11_EOF      RECT_OPEN    1.000000         25.000000  0.000000   0.000000   1          0         
JUNC_12_EOF      RECT_OPEN    1.000000         25.000000  0.000000   0.000000   1          0         
JUNC_13_EOF      RECT_OPEN    1.000000         25.000000  0.000000   0.000000   1          0         
JUNC_16_EOF      RECT_OPEN    1.000000         25.000000  0.000000   0.000000   1          0         
JUNC_17_EOF      RECT_OPEN    1.000000         50.000000  0.000000   0.000000   1          0         
JUNC_18_EOF      RECT_OPEN    1.000000         50.000000  0.000000   0.000000   1          0         
JUNC_22_EOF      RECT_OPEN    1.000000         25.000000  0.000000   0.000000   1          0         
JUNC_23_EOF      RECT_OPEN    1.000000         25.000000  0.000000   0.000000   1          0         
JUNC_24_EOF      RECT_OPEN    1.000000         50.000000  0.000000   0.000000   1          0         
JUNC_27_EOF      RECT_OPEN    1.000000         25.000000  0.000000   0.000000   1          0         
JUNC_28_EOF      RECT_OPEN    1.000000         50.000000  0.000000   0.000000   1          0         
JUNC_ROUND_EOF   RECT_OPEN    1.000000         25.000000  0.000000   0.000000   1          0         
STM_03-04        CIRCULAR     2.333333         0.000000   0.000000   0.000000   1          0         
STM_05           CIRCULAR     3.000000         0.000000   0.000000   0.000000   1          0         
STM_10           CIRCULAR     3.000000         0.000000   0.000000   0.000000   1          0         
STM_11           CIRCULAR     2.750000         0.000000   0.000000   0.000000   1          0         
STM_12           CIRCULAR     2.500000         0.000000   0.000000   0.000000   1          0         
STM_13           CIRCULAR     2.000000         0.000000   0.000000   0.000000   1          0         
STM_14           CIRCULAR     1.250000         0.000000   0.000000   0.000000   1          0         
STM_16           CIRCULAR     2.000000         0.000000   0.000000   0.000000   1          0         
STM_17           CIRCULAR     2.000000         0.000000   0.000000   0.000000   1          0         
STM_18           CIRCULAR     1.750000         0.000000   0.000000   0.000000   1          0         
STM_19           CIRCULAR     1.250000         0.000000   0.000000   0.000000   1          0         
STM_22           CIRCULAR     4.500000         0.000000   0.000000   0.000000   1          0         
STM_23           CIRCULAR     2.500000         0.000000   0.000000   0.000000   1          0         
STM_24           CIRCULAR     2.500000         0.000000   0.000000   0.000000   1          0         
STM_25           CIRCULAR     2.500000         0.000000   0.000000   0.000000   1          0         
STM_27           CIRCULAR     1.250000         0.000000   0.000000   0.000000   1          0         
STM_28           CIRCULAR     1.750000         0.000000   0.000000   0.000000   1          0         
STM_6            CIRCULAR     3.000000         0.000000   0.000000   0.000000   1          0         
STM_7            CIRCULAR     3.000000         0.000000   0.000000   0.000000   1          0         
STM_JUNC_ROUND   CIRCULAR     2.000000         0.000000   0.000000   0.000000   1          0         
STM_JUNC_ROUND_2 CIRCULAR     3.000000         0.000000   0.000000   0.000000   1          0         
STM_PROP_1       CIRCULAR     4.500000         0.000000   0.000000   0.000000   1          0         
STM_PROP_2       CIRCULAR     4.000000         0.000000   0.000000   0.000000   1          0         
STOR_14_EOF      RECT_OPEN    1.000000         50.000000  0.000000   0.000000   1          0         
STOR_15_EOF      RECT_OPEN    1.000000         50.000000  0.000000   0.000000   1          0         
STOR_15_OUTLET   CIRCULAR     1.250000         0.000000   0.000000   0.000000   1          0         
STOR_19_EOF      RECT_OPEN    1.000000         50.000000  0.000000   0.000000   1          0         
STOR_20_EOF      RECT_OPEN    1.000000         50.000000  0.000000   0.000000   1          0         
STOR_21_EOF      RECT_OPEN    1.000000         75.000000  0.000000   0.000000   1          0         
STOR_28_OUT      CIRCULAR     1.250000         0.000000   0.000000   0.000000   1          0         
STOR_29_EOF      TRAPEZOIDAL  3.000000         15.000000  3.000000   3.000000   1          0         
STOR_30_EOF      RECT_OPEN    1.000000         75.000000  0.000000   0.000000   1          0         
STOR_31_EOF-1    RECT_OPEN    1.000000         50.000000  0.000000   0.000000   1          0         
STOR_32-EOF      RECT_OPEN    1.000000         50.000000  0.000000   0.000000   1          0         
STOR_33_EOF      RECT_OPEN    1.000000         50.000000  0.000000   0.000000   1          0         
STOR_7_OUT       CIRCULAR     1.000000         0.000000   0.000000   0.000000   1          0         