[TITLE]
;;Project Title/Notes

[OPTIONS]
;;Option             Value
FLOW_UNITS           CFS
INFILTRATION         HORTON
FLOW_ROUTING         DYNWAVE
LINK_OFFSETS         DEPTH
MIN_SLOPE            0
ALLOW_PONDING        YES
SKIP_STEADY_STATE    NO

START_DATE           08/01/2002
START_TIME           00:00:00
REPORT_START_DATE    08/01/2002
REPORT_START_TIME    00:00:00
END_DATE             10/01/2002
END_TIME             09:00:00
SWEEP_START          01/01
SWEEP_END            12/31
DRY_DAYS             0
REPORT_STEP          00:01:00
WET_STEP             00:01:00
DRY_STEP             01:00:00
ROUTING_STEP         0:00:10 

INERTIAL_DAMPING     PARTIAL
NORMAL_FLOW_LIMITED  SLOPE
FORCE_MAIN_EQUATION  H-W
VARIABLE_STEP        0.75
LENGTHENING_STEP     10
MIN_SURFAREA         12.557
MAX_TRIALS           8
HEAD_TOLERANCE       0.005
SYS_FLOW_TOL         5
LAT_FLOW_TOL         5
MINIMUM_STEP         0.5
THREADS              1

[EVAPORATION]
;;Data Source    Parameters
;;-------------- ----------------
MONTHLY          2.49   2.64   3.66   4.58   4.78   4.08   4.24   4.11   3.55   3.46   2.92   2.47  
DRY_ONLY         NO

[RAINGAGES]
;;Name           Format    Interval SCF      Source    
;;-------------- --------- ------ ------ ----------
;                 Timeseries/  Source           Format/    RecdFreq/
;Name             File         Name             Station    RecdIntvl
;-------------------------------------------------------------------
ORLANDO          CUMULATIVE 0:30     1.0      TIMESERIES OC100           

[SUBCATCHMENTS]
;;Name           Rain Gage        Outlet           Area     %Imperv  Width    %Slope   CurbLen  SnowPack        
;;-------------- ---------------- ---------------- -------- -------- -------- -------- -------- ----------------
;                                                   Total    Pcnt.             Pcnt.    Curb
;Name             Raingage         Outlet           Area     Imperv   Width    Slope    Length
;---------------------------------------------------------------------------------------------
;Big Sand Lake - Southern Portion (lake)
BSL0100          ORLANDO          0100             384      90.4     10000    .0001    0                        
;Big Sand Lake - Southern Portion (land)
BSL0200          ORLANDO          0100             1100.2   23.6     14266.5  0.0087   0                        
;Lake Willis (lake)
BSL0300          ORLANDO          0300             129.3    99.2     10000    0.0001   0                        
;Lake Willis (land)
BSL0400          ORLANDO          0300             207.2    26.8     6356.3   0.0082   0                        
;Lake Crowell (lake)
BSL0500          ORLANDO          0500             19.8     99.8     10000    0.0001   0                        
;Lake Crowell (land)
BSL0600          ORLANDO          0500             182.4    29.2     5315.6   0.0160   0                        
;Big Sand Lake - northern portion (lake)
BSL0700          ORLANDO          0700             617.6    90       10000    0.0001   0                        
;Big Sand Lake - northern portion (land)
BSL0800          ORLANDO          0700             830.10   28.6     17617.2  0.0139   0                        
;Boo Boo Lake (lake)
BSL0900          ORLANDO          0900             15.5     83.5     10000    0.0001   0                        
;Boo Boo Lake (land)
BSL1000          ORLANDO          0900             80.4     44.4     4138     0.0218   0                        
;Lake Serene (land)
BSL1100          ORLANDO          1100             45       96.1     10000    0.0001   0                        
;Lake Serene (land)
BSL1200          ORLANDO          1100             167.10   28.8     4539.4   0.0193   0                        
;Little Sand Lake (lake)
BSL1300          ORLANDO          1300             151.9    99.6     10000    0.0001   0                        
;Little Sand Lake (land)
BSL1400          ORLANDO          1300             477.9    41.4     8714.4   0.0192   0                        
;Spring Lake (lake)
BSL1500          ORLANDO          1500             111.4    98.5     10000    0.0001   0                        
;Spring Lake (land)
BSL1600          ORLANDO          1500             832.4    31.4     9308.3   0.0122   0                        

[SUBAREAS]
;;Subcatchment   N-Imperv   N-Perv     S-Imperv   S-Perv     PctZero    RouteTo    PctRouted 
;;-------------- ---------- ---------- ---------- ---------- ---------- ---------- ----------
BSL0100          0.010      0.010      0.00       0.00       30         OUTLET    
BSL0200          0.026      0.308      0.504      0.168      30         OUTLET    
BSL0300          0.010      0.010      0.00       0.00       30         OUTLET    
BSL0400          0.028      0.331      0.329      0.168      30         OUTLET    
BSL0500          0.010      0.010      0.00       0.00       30         OUTLET    
BSL0600          0.023      0.227      0.15       0.23       30         OUTLET    
BSL0700          0.010      0.010      0.0        0.0        30         OUTLET    
BSL0800          0.026      0.242      0.462      0.161      30         OUTLET    
BSL0900          0.010      0.010      0.00       0.00       30         OUTLET    
BSL1000          0.016      0.343      0.17       0.23       30         OUTLET    
BSL1100          0.010      0.010      0.00       0.00       30         OUTLET    
BSL1200          0.016      0.241      0.63       0.23       30         OUTLET    
BSL1300          0.010      0.010      0.00       0.00       30         OUTLET    
BSL1400          0.028      0.275      0.448      0.161      30         OUTLET    
BSL1500          0.010      0.010      0.00       0.00       30         OUTLET    
BSL1600          0.016      0.276      0.32       0.184      30         OUTLET    

[INFILTRATION]
;;Subcatchment   MaxRate    MinRate    Decay      DryTime    MaxInfil  
;;-------------- ---------- ---------- ---------- ---------- ----------
BSL0100          3.7        0.1        0.00056    1          0.00      
BSL0200          7.5        0.5        0.00056    1          4.1       
BSL0300          3.6        0.1        0.00056    1          0.00      
BSL0400          6.5        0.4        0.00056    1          3.5       
BSL0500          3.5        0.1        0.00056    1          0.00      
BSL0600          8.1        0.6        0.00056    1          4.3       
BSL0700          3.5        0.1        0.00056    1          0.00      
BSL0800          5.6        0.3        0.00056    1          2.7       
BSL0900          5.0        0.2        0.00056    1          0.00      
BSL1000          7.7        0.5        0.00056    1          4.1       
BSL1100          3.6        0.1        0.00056    1          0.00      
BSL1200          10.2       0.8        0.00056    1          5.7       
BSL1300          3.1        0.1        0.00056    1          0.00      
BSL1400          8.9        0.7        0.00056    1          4.9       
BSL1500          3.7        0.1        0.00056    1          0.00      
BSL1600          7.0        0.5        0.00056    1          3.8       

[JUNCTIONS]
;;Name           Elevation  MaxDepth   InitDepth  SurDepth   Aponded   
;;-------------- ---------- ---------- ---------- ---------- ----------
;                 Invert     Max.       Init.      Surcharge  Ponded
;Name             Elev.      Depth      Depth      Depth      Area
;------------------------------------------------------------------------
0055             96.19      50         0          0          0         
0060             95.37      50         0          0          0         
0065             95.32      50         0          0          0         
0070             94.01      50         0          0          0         
7999             40.00      50.        22.17      0          0         
8000             43.00      50         19.17      0          0         
8001             44.00      50         18.17      0          0         
8002             45.00      50         17.17      0          0         
8003             46.00      50         16.17      0          0         
8004             47.00      50         15.17      0          0         
8005             48.00      50         14.17      0          0         
8006             49.00      50         13.17      0          0         
8007             50.00      50.        12.17      0          0         

[OUTFALLS]
;;Name           Elevation  Type       Stage Data       Gated    Route To        
;;-------------- ---------- ---------- ---------------- -------- ----------------
;                 Invert     Outfall      Stage/Table
;Name             Elev.      Type         Time Series
;----------------------------------------------------
0010             82.77      FIXED      89.77            NO                       
;Seepage Outfall
7998             30.0       TIMESERIES POSURF           NO                       

[STORAGE]
;;Name           Elev.    MaxDepth   InitDepth  Shape      Curve Name/Params            N/A      Fevap    Psi      Ksat     IMD     
;;-------------- -------- ---------- ----------- ---------- ---------------------------- -------- --------          -------- --------
;                 Invert     Max.       Init.
;Name             Elev.      Depth      Depth      Geometry
;---------------------------------------------------------------------
;Check
0015             89.76    50         0          FUNCTIONAL 100       1         0        0        0       
;Check
0020             92.25    50         0          FUNCTIONAL 100       1         0        0        0       
;Check
0025             93.09    50         0          FUNCTIONAL 100       1         0        0        0       
;Check
0030             93.36    50         0          FUNCTIONAL 100       1         0        0        0       
;Check
0035             95.77    50         0          FUNCTIONAL 100       1         0        0        0       
;Check
0040             95.28    50         0          FUNCTIONAL 1000      1         0        0        0       
;Check
0045             95.70    50         0          FUNCTIONAL 100       1         0        0        0       
;Check
0050             95.92    50         0          FUNCTIONAL 500       1         0        0        0       
;Big Sand Lake South
0100             75       50         15.39      TABULAR    0100                         0        0       
;Lake Willis
0300             95       50         10.8       TABULAR    0300                         0        0       
;Lake Crowell
0500             95       50         0.0        TABULAR    0500                         0        0       
;Big Sand Lake North
0700             75       50         15.39      TABULAR    0700                         0        0       
;Boo Boo Lake
0900             90       50         0.39       TABULAR    0900                         0        0       
;Lake Serene
1100             85       50         5.39       TABULAR    1100                         0        0       
;Little Sand Lake
1300             75       50         23.5       TABULAR    1300                         0        0       
;Spring Lake
1500             85       50         13.52      TABULAR    1500                         0        0       
;Dummy Node for Weir
1350             95       50.        3.5        FUNCTIONAL 1000      1         0        0        0       
0250             94.9     50         0          TABULAR    0250                         0        0       
;Check
0200             94.2     50         0          FUNCTIONAL 100       1         0        0        0       
0150             90.4     50         0          TABULAR    0150                         0        0       

[CONDUITS]
;;Name           From Node        To Node          Length     Roughness  InOffset   OutOffset  InitFlow   MaxFlow   
;;-------------- ---------------- ---------------- ---------- ---------- ---------- ---------- ---------- ----------
;                 Inlet            Outlet                      Manning    Inlet      Outlet     Init.
;Name             Node             Node             Length     N          Height     Height     Flow
;------------------------------------------------------------------------------------------------------------
DUMMY0           7999             7998             200        0.001      0          0          0          0         
DUMMY1           8000             7999             200        0.001      0          0          0          0         
DUMMY2           8001             7999             200        0.009      0          0          0          0         
DUMMY3           8002             7999             200        0.009      0          0          0          0         
DUMMY4           8003             7999             200        0.009      0          0          0          0         
DUMMY5           8004             7999             200        0.009      0          0          0          0         
DUMMY6           8005             7999             200        0.009      0          0          0          0         
DUMMY7           8006             7999             200        0.009      0          0          0          0         
DUMMY8           8007             7999             200        0.009      0          0          0          0         
CULV-20          0020             0015             540        0.012      0          1.69       0          0         
CULV-25          0025             0020             500        0.012      0          0.08       0          0         
CULV-30          0030             0025             440        0.012      0          0.68       0          0         
CULV-35          0035             0030             450        0.024      0          0.74       0          0         
;Reversed Convention
CULV-40A         0035             0040             100        0.012      0          0.17       0          0         
;Reversed Convention
CULV-40B         0035             0040             100        0.012      0          0.20       0          0         
;Reversed Convention
CULV-40C         0035             0040             100        0.012      0          0.14       0          0         
CULV-45A         0045             0040             200        0.012      0.0        0.09       0          0         
CULV-45B         0045             0040             200        0.012      0.0        0.0        0          0         
CULV-50          0050             0045             270        0.012      0.0        0.0        0          0         
CULV-55A         0055             0050             440        0.012      0.06       0.43       0          0         
CULV-55B         0055             0050             440        0.012      0.0        0.39       0          0         
;Reversed Convention
CHAN-60          0055             0060             385        0.027      0.0        0.0        0          0         
;Reversed Convention
CULV-65A         0060             0065             185        0.012      0.08       0.02       0          0         
;Reversed Convention
CULV-65B         0060             0065             185        0.012      0.08       0          0          0         
;Reversed Convention
CHAN-70          0065             0070             280        0.027      0.0        0.0        0          0         
;Reversed Convention
CULV-100A        0070             0100             30         0.024      0.61       17.95      0          0         
;Reversed Convention
CULV-100B        0070             0100             30         0.024      0          17.97      0          0         
CHAN-700         0700             0100             1650       0.027      6          5          0          0         
LKSerene_ovfl1   1100             0700             420        0.011      12.0       22.0       0          0         
CULV-1350A       1350             1300             144.5      0.024      0.65       18.41      0          0         
CULV-1350B       1350             1300             144.5      0.024      0.65       18.41      0          0         
CHAN-900         0900             0700             850        0.027      5.0        10.0       0          0         
CULV-15          0015             0010             570        0.01       0          0          0          0         
CULV-300A        0300             0250             174        0.013      9.5        7.0        0          0         
CULV-300B        0250             0200             151        0.013      0.0        0.5        0          0         
CULV-300C        0200             0150             354        0.013      0          0          0          0         
;Land Overflow
Crowell_ovfl     0500             0700             1500       0.06       5.3        25         0          0         
;Lake Serene Land Overflow
LKSerene_ovfl2   1100             0700             500        0.04       18         27         0          0         

[WEIRS]
;;Name           From Node        To Node          Type         CrestHt    Qcoeff     Gated    EndCon   EndCoeff   Surcharge  RoadWidth  RoadSurf  
;;-------------- ---------------- ---------------- ------------ ---------- ---------- -------- -------- ---------- ---------- ---------- ----------
;                 Inlet            Outlet                        Crest      Disch.     Flap End        End
;Name             Node             Node             Type         Height     Coeff.     Gate Coeff.     Con.
;---------------------------------------------------------------------------------------------------------
;Spring Lake Notch Weir
Weir1500a        1500             1350             TRANSVERSE   12.23      3.33       NO       0        0          YES       
;Spring Lake Weir
Weir1500b        1500             1350             TRANSVERSE   13.06      3.33       NO       0        0          YES       
;Little Sand Lake
Weir1300a        1300             0700             TRANSVERSE   23         2.8        NO       0        0          YES       
Weir0150a        0150             0100             TRANSVERSE   5.1        2.8        NO       0        0          YES       

[XSECTIONS]
;;Link           Shape        Geom1            Geom2      Geom3      Geom4      Barrels    Culvert   
;;-------------- ------------ ---------------- ---------- ---------- ---------- ---------- ----------
DUMMY0           TRAPEZOIDAL  30               50         5          5          1                    
DUMMY1           TRAPEZOIDAL  30               50         5          5          1                    
DUMMY2           TRAPEZOIDAL  30               50         5          5          1                    
DUMMY3           TRAPEZOIDAL  30               50         5          5          1                    
DUMMY4           TRAPEZOIDAL  30               50         5          5          1                    
DUMMY5           TRAPEZOIDAL  30               50         5          5          1                    
DUMMY6           TRAPEZOIDAL  30               50         5          5          1                    
DUMMY7           TRAPEZOIDAL  30               50         5          5          1                    
DUMMY8           TRAPEZOIDAL  30               50         5          5          1                    
CULV-20          CIRCULAR     4                0          0          0          1                    
CULV-25          CIRCULAR     4                0          0          0          1                    
CULV-30          CIRCULAR     4                0          0          0          1                    
CULV-35          CIRCULAR     4.5              0          0          0          1                    
CULV-40A         CIRCULAR     3                0          0          0          1                    
CULV-40B         CIRCULAR     3                0          0          0          1                    
CULV-40C         CIRCULAR     3                0          0          0          1                    
CULV-45A         CIRCULAR     4                0          0          0          1                    
CULV-45B         CIRCULAR     4                0          0          0          1                    
CULV-50          RECT_CLOSED  4                6          0          0          1                    
CULV-55A         CIRCULAR     4                0          0          0          1                    
CULV-55B         CIRCULAR     4                0          0          0          1                    
CHAN-60          IRREGULAR    1000             0          0          0          1                    
CULV-65A         CIRCULAR     3.5              0          0          0          1                    
CULV-65B         CIRCULAR     4.5              0          0          0          1                    
CHAN-70          IRREGULAR    2000             0          0          0          1                    
CULV-100A        CIRCULAR     3.5              0          0          0          1                    
CULV-100B        CIRCULAR     3.5              0          0          0          1                    
CHAN-700         IRREGULAR    3000             0          0          0          1                    
LKSerene_ovfl1   CIRCULAR     1.5              0          0          0          1                    
CULV-1350A       CIRCULAR     3                0          0          0          1                    
CULV-1350B       CIRCULAR     3                0          0          0          1                    
CHAN-900         IRREGULAR    7000             0          0          0          1                    
CULV-15          CIRCULAR     4                0          0          0          1                    
CULV-300A        CIRCULAR     2.5              0          0          0          1                    
CULV-300B        CIRCULAR     4.5              0          0          0          1                    
CULV-300C        CIRCULAR     4.5              0          0          0          1                    
Crowell_ovfl     TRAPEZOIDAL  5                400        10         10         1                    
LKSerene_ovfl2   TRAPEZOIDAL  5                400        10         10         1                    
Weir1500a        RECT_OPEN    50               3          0          0         
Weir1500b        RECT_OPEN    50               18.1       0          0         
Weir1300a        RECT_OPEN    50               150        0          0         
Weir0150a        RECT_OPEN    50               200        0          0         

[TRANSECTS]
;;Transect Data in HEC-2 format
;
;--------------------------------------------------------------------------------------------
NC 0.035    0.035    0.027   
X1 1000              3        0.0      60       0.0      0.0      0.0      0.0      0.0     
GR 112.9    0        95.7     30       114.8    60      
;
NC 0.035    0.035    0.027   
X1 2000              3        0.0      60       0.0      0.0      0.0      0.0      0.0     
GR 105.9    0        95.4     30       104.8    60      
;
NC 0.035    0.035    0.027   
X1 3000              11       150      625      0.0      0.0      0.0      0.0      0.0     
GR 100      0        95       150      90       180      85       200      80       230     
GR 75       330      80       430      85       470      90       540      95       625     
GR 100      990     
;
NC 0.035    0.035    0.027   
X1 6000              9        0.0      1230     0.0      0.0      0.0      0.0      0.0     
GR 111      0        110      220      109      330      108      440      107      550     
GR 107      1000     108      1050     109      1100     111      1230    
;
NC 0.035    0.035    0.027   
X1 7000              13       70       245      0.0      0.0      0.0      0.0      0.0     
GR 105      0        100      70       96       125      95       150      100      245     
GR 105      345      99       700      100      760      101      900      102      965     
GR 103      1040     104      1120     110      1800    

[CURVES]
;;Name           Type       X-Value    Y-Value   
;;-------------- ---------- ---------- ----------
;Big Sand Lake South
PUMP0100         PUMP3      0          -0.96     
PUMP0100                    25         -0.46     
PUMP0100                    50         0.0       
;
;Lake Willis
PUMP0300         PUMP3      0          -0.06     
PUMP0300                    25         -0.03     
PUMP0300                    50         0.0       
;
;Lake Crowell
PUMP0500         PUMP3      0          -0.06     
PUMP0500                    25         -0.03     
PUMP0500                    50         0.0       
;
;Big Sand Lake North
PUMP0700         PUMP3      0          -0.90     
PUMP0700                    25         -.80      
PUMP0700                    50         0.0       
;
;Big Boo Boo Lake
PUMP0900         PUMP3      0          -0.06     
PUMP0900                    25         -0.03     
PUMP0900                    50         0.0       
;
;Lake Serene
PUMP1100         PUMP3      0          -0.18     
PUMP1100                    25         -0.09     
PUMP1100                    50         0.0       
;
;Little Sand Lake
PUMP1300         PUMP3      0          -2.55     
PUMP1300                    25         -1.30     
PUMP1300                    50         0.0       
;
;Spring Lake
PUMP1500         PUMP3      0          -0.30     
PUMP1500                    25         -0.15     
PUMP1500                    50         0.0       
;
;Name             Type       X-Value    Y-Value
;-------------------------------------------------
;Big Sand Lake South
0100             STORAGE    0          67.2      
0100                        5          103.6     
0100                        10         139.9     
0100                        15         383.3     
0100                        20         424       
0100                        25         476.4     
0100                        30         574.9     
;
;Lake Willis
0300             STORAGE    0          113       
0300                        6          124.2     
0300                        10         131.6     
0300                        13         159.4     
0300                        15         181.6     
;
;Lake Crowell
0500             STORAGE    0          22.8      
0500                        5          27        
0500                        10         52.5      
;
;Big Sanld Lake North
0700             STORAGE    0          250.6     
0700                        5          376.5     
0700                        10         502.3     
0700                        15         628.2     
0700                        20         715.6     
0700                        25         832.2     
0700                        30         1019.9    
;
;Boo Boo Lake
0900             STORAGE    0          8.7       
0900                        5          16.4      
0900                        10         24.1      
0900                        15         31.9      
;
;Lake Serene
1100             STORAGE    0          31.4      
1100                        5          38.8      
1100                        10         46.1      
1100                        15         54        
1100                        20         73.7      
;
;Little Sand Lake
1300             STORAGE    0          68.9      
1300                        5          94.9      
1300                        10         120.9     
1300                        15         138.4     
1300                        20         154       
1300                        25         179.3     
;
;Spring Lake
1500             STORAGE    0          76.8      
1500                        5          91.6      
1500                        10         106.4     
1500                        15         109       
1500                        20         135.8     
1500                        25         191.6     
1500                        30         215.8     
;
0250             STORAGE    0          0.01      
0250                        6.6        0.015     
0250                        7.1        0.06      
0250                        11.1       0017      
;
0150             STORAGE    0          0.05      
0150                        5.1        0.17      
0150                        14.6       2.0       

[TIMESERIES]
;;Name           Date       Time       Value     
;;-------------- ---------- ---------- ----------
;Name             Date       Time       Value
;-------------------------------------------------
;RAINFALL
OC100                       0.0        0         
OC100                       0.5        0.0106    
OC100                       1.0        0.0212    
OC100                       1.5        0.0318    
OC100                       2.0        0.0848    
OC100                       2.5        0.1378    
OC100                       3.0        0.2226    
OC100                       3.5        0.3604    
OC100                       4.0        0.5194    
OC100                       4.5        0.742     
OC100                       5.0        0.9646    
OC100                       5.5        1.1978    
OC100                       6.0        1.4416    
OC100                       6.5        1.9398    
OC100                       7.0        2.5016    
OC100                       7.5        3.2118    
OC100                       8.0        4.0916    
OC100                       8.5        5.194     
OC100                       9.0        6.2858    
OC100                       9.5        7.0596    
OC100                       10.0       7.8016    
OC100                       10.5       8.1832    
OC100                       11.0       8.5754    
OC100                       11.5       8.8298    
OC100                       12.0       9.0418    
OC100                       12.5       9.2856    
OC100                       13.0       9.5188    
OC100                       13.5       9.6778    
OC100                       14.0       9.8262    