[TITLE]
;;Project Title/Notes

[OPTIONS]
;;Option             Value
FLOW_UNITS           CFS
INFILTRATION         CURVE_NUMBER
FLOW_ROUTING         DYNWAVE
LINK_OFFSETS         DEPTH
MIN_SLOPE            0
ALLOW_PONDING        YES
SKIP_STEADY_STATE    NO

START_DATE           01/01/2002
START_TIME           00:00:00
REPORT_START_DATE    01/01/2002
REPORT_START_TIME    00:00:00
END_DATE             01/08/2002
END_TIME             06:00:00
SWEEP_START          01/01
SWEEP_END            12/31
DRY_DAYS             5.000000
REPORT_STEP          00:10:00
WET_STEP             00:05:00
DRY_STEP             01:00:00
ROUTING_STEP         0:00:05 

INERTIAL_DAMPING     NONE
NORMAL_FLOW_LIMITED  SLOPE
FORCE_MAIN_EQUATION  H-W
VARIABLE_STEP        1.00
LENGTHENING_STEP     60
MIN_SURFAREA         12.557
MAX_TRIALS           8
HEAD_TOLERANCE       0.005
SYS_FLOW_TOL         5
LAT_FLOW_TOL         5
MINIMUM_STEP         0
THREADS              1

[EVAPORATION]
;;Data Source    Parameters
;;-------------- ----------------
CONSTANT         0.0
DRY_ONLY         NO

[RAINGAGES]
;;Name           Format    Interval SCF      Source    
;;-------------- --------- ------ ------ ----------
RAIN             CUMULATIVE 0.4000   1.000000 TIMESERIES RAIN2YEAR       

[SUBCATCHMENTS]
;;Name           Rain Gage        Outlet           Area     %Imperv  Width    %Slope   CurbLen  SnowPack        
;;-------------- ---------------- ---------------- -------- -------- -------- -------- -------- ----------------
ACD72_01         RAIN             S_ACD72_01       65.857983 25.000000 500.000000 0.500000 0.000000 Asnow           
ACD72_02         RAIN             S_ACD72_02       29.641552 25.000000 500.000000 0.500000 0.000000 Asnow           
ACD72_03         RAIN             S_ACD72_03       14.011191 25.000000 500.000000 0.500000 0.000000 Asnow           
ACD72_04         RAIN             S_ACD72_04       9.337277 25.000000 500.000000 0.500000 0.000000 Asnow           
ACD72_04B        RAIN             S_ACD72_04B      12.063250 25.000000 500.000000 0.500000 0.000000 Asnow           
ACD72_05         RAIN             S_ACD72_05       18.805781 25.000000 500.000000 0.500000 0.000000 Asnow           
ACD72_06         RAIN             S_ACD72_06       58.465079 25.000000 500.000000 0.500000 0.000000 Asnow           
ACD72_07         RAIN             S_ACD72_07       6.460732 25.000000 500.000000 0.500000 0.000000 Asnow           
ACD72_08         RAIN             S_ACD72_08       4.942560 25.000000 500.000000 0.500000 0.000000 Asnow           
ACD72_09         RAIN             S_ACD72_09       56.870070 25.000000 500.000000 0.500000 0.000000 Asnow           
ACD72_10         RAIN             S_ACD72_10       29.044449 25.000000 500.000000 0.500000 0.000000 Asnow           
ACD72_11         RAIN             S_ACD72_11       15.616290 25.000000 500.000000 0.500000 0.000000 Asnow           
ACD72_12         RAIN             S_ACD72_12       54.612248 25.000000 500.000000 0.500000 0.000000 Asnow           
ACD72_14         RAIN             S_ACD72_14       22.761987 25.000000 500.000000 0.500000 0.000000 Asnow           
ACD72_15         RAIN             S_ACD72_15       20.514811 25.000000 500.000000 0.500000 0.000000 Asnow           
ACD72_16         RAIN             S_ACD72_16       16.122918 25.000000 500.000000 0.500000 0.000000 Asnow           
ACD72_17         RAIN             S_ACD72_17       2.514349 25.000000 500.000000 0.500000 0.000000 Asnow           

[SUBAREAS]
;;Subcatchment   N-Imperv   N-Perv     S-Imperv   S-Perv     PctZero    RouteTo    PctRouted 
;;-------------- ---------- ---------- ---------- ---------- ---------- ---------- ----------
ACD72_01         0.100000   0.001000   0.050000   0.050000   25.000000  OUTLET    
ACD72_02         0.100000   0.001000   0.050000   0.050000   25.000000  OUTLET    
ACD72_03         0.100000   0.001000   0.050000   0.050000   25.000000  OUTLET    
ACD72_04         0.100000   0.001000   0.050000   0.050000   25.000000  OUTLET    
ACD72_04B        0.100000   0.001000   0.050000   0.050000   25.000000  OUTLET    
ACD72_05         0.100000   0.001000   0.050000   0.050000   25.000000  OUTLET    
ACD72_06         0.100000   0.001000   0.050000   0.050000   25.000000  OUTLET    
ACD72_07         0.100000   0.001000   0.050000   0.050000   25.000000  OUTLET    
ACD72_08         0.100000   0.001000   0.050000   0.050000   25.000000  OUTLET    
ACD72_09         0.100000   0.001000   0.050000   0.050000   25.000000  OUTLET    
ACD72_10         0.100000   0.001000   0.050000   0.050000   25.000000  OUTLET    
ACD72_11         0.100000   0.001000   0.050000   0.050000   25.000000  OUTLET    
ACD72_12         0.100000   0.001000   0.050000   0.050000   25.000000  OUTLET    
ACD72_14         0.100000   0.001000   0.050000   0.050000   25.000000  OUTLET    
ACD72_15         0.100000   0.001000   0.050000   0.050000   25.000000  OUTLET    
ACD72_16         0.100000   0.001000   0.050000   0.050000   25.000000  OUTLET    
ACD72_17         0.100000   0.001000   0.050000   0.050000   25.000000  OUTLET    

[INFILTRATION]
;;Subcatchment   CurveNum              DryTime   
;;-------------- ---------- ---------- ----------
ACD72_01         74.860000  0.500000   74.860000 
ACD72_02         74.860000  0.500000   74.860000 
ACD72_03         74.860000  0.500000   74.860000 
ACD72_04         74.860000  0.500000   74.860000 
ACD72_04B        74.860000  0.500000   74.860000 
ACD72_05         62.980000  0.500000   62.980000 
ACD72_06         74.860000  0.500000   74.860000 
ACD72_07         62.980000  0.500000   62.980000 
ACD72_08         59.050000  0.500000   59.050000 
ACD72_09         62.980000  0.500000   62.980000 
ACD72_10         62.980000  0.500000   62.980000 
ACD72_11         60.570000  0.500000   60.570000 
ACD72_12         69.520000  0.500000   69.520000 
ACD72_14         74.170000  0.500000   74.170000 
ACD72_15         72.370000  0.500000   72.370000 
ACD72_16         74.170000  0.500000   74.170000 
ACD72_17         72.370000  0.500000   72.370000 

[SNOWPACKS]
;;Name           Surface    Parameters
;;-------------- ---------- ----------
Asnow            PLOWABLE   0.001      0.001      32.0       0.10       0.00       0.00       0.0       
Asnow            IMPERVIOUS 0.001      0.001      32.0       0.10       0.00       0.00       0.00      
Asnow            PERVIOUS   0.001      0.001      32.0       0.10       0.00       0.00       0.00      
Asnow            REMOVAL    1.0        0.0        0.0        0.0        0.0        0.0        

[JUNCTIONS]
;;Name           Elevation  MaxDepth   InitDepth  SurDepth   Aponded   
;;-------------- ---------- ---------- ---------- ---------- ----------
BR11_01          902.560000 20.000000  0.000000   0.000000   0.000000  
BR11_02          904.720000 20.000000  0.000000   0.000000   0.000000  
BR11_03          905.130000 20.000000  0.000000   0.000000   0.000000  
BR11_04          905.330000 20.000000  0.000000   0.000000   0.000000  
BR11_05          905.530000 20.000000  0.000000   0.000000   0.000000  
BR11_06          905.870000 20.000000  0.000000   0.000000   0.000000  
BR11_07          906.130000 20.000000  0.000000   0.000000   0.000000  
BR11_08          906.440000 20.000000  0.000000   0.000000   0.000000  
BR11_09          906.580000 20.000000  0.000000   0.000000   0.000000  
BR11_10          907.600000 20.000000  0.000000   0.000000   0.000000  
BR11_11          907.750000 20.000000  0.000000   0.000000   0.000000  
BR11_L10         907.600000 20.000000  0.000000   0.000000   0.000000  
BR11_L2          905.690000 20.000000  0.000000   0.000000   0.000000  
BR11_L4A_01      907.000000 20.000000  0.000000   0.000000   0.000000  
BR11_L4A_02      908.800000 20.000000  0.000000   0.000000   0.000000  
BR1_01           890.900000 20.000000  0.000000   0.000000   0.000000  
BR1_02           891.700000 20.000000  0.000000   0.000000   0.000000  
BR1_03           894.100000 20.000000  0.000000   0.000000   0.000000  
BR1_03B          893.799000 20.000000  0.000000   0.000000   0.000000  
BR1_04           894.500000 20.000000  0.000000   0.000000   0.000000  
BR1_05           895.245000 20.000000  0.000000   0.000000   0.000000  
BR1_06           895.250000 20.000000  0.000000   0.000000   0.000000  
BR1_07           895.850000 20.000000  0.000000   0.000000   0.000000  
BR1_08           896.450000 20.000000  0.000000   0.000000   0.000000  
BR1_09           897.650000 20.000000  0.000000   0.000000   0.000000  
BR1_10           898.850000 20.000000  0.000000   0.000000   0.000000  
BR1_L11          905.600000 20.000000  0.000000   0.000000   0.000000  
MT_00            885.123000 20.000000  0.000000   0.000000   0.000000  
MT_01            885.556000 20.000000  0.000000   0.000000   0.000000  
MT_02            887.160000 20.000000  0.000000   0.000000   0.000000  
MT_03            889.560000 20.000000  0.000000   0.000000   0.000000  
MT_04            893.110000 20.000000  0.000000   0.000000   0.000000  
MT_05            895.000000 20.000000  0.000000   0.000000   0.000000  
MT_06            896.180000 20.000000  0.000000   0.000000   0.000000  
MT_07            896.500000 20.000000  0.000000   0.000000   0.000000  
MT_08            896.800000 20.000000  0.000000   0.000000   0.000000  
MT_09            898.040000 20.000000  0.000000   0.000000   0.000000  
MT_10            900.100000 20.000000  0.000000   0.000000   0.000000  
MT_11            900.750000 20.000000  0.000000   0.000000   0.000000  
MT_12            900.800000 20.000000  0.000000   0.000000   0.000000  
MT_13            904.000000 20.000000  0.000000   0.000000   0.000000  
MT_14            904.460000 20.000000  0.000000   0.000000   0.000000  
OVERLAND_03J     899.560000 20.000000  0.000000   0.000000   0.000000  
OVERLAND_BR11_01 908.290000 20.000000  0.000000   0.000000   0.000000  
OVERLAND_BR11_02 909.050000 20.000000  0.000000   0.000000   0.000000  

[OUTFALLS]
;;Name           Elevation  Type       Stage Data       Gated    Route To        
;;-------------- ---------- ---------- ---------------- -------- ----------------
LEAVING_SYSTEM1  905.900000 FREE                        NO                       
LEAVING_SYSTEM2  909.460000 FREE                        NO                       
LEAVING_SYSTEM4  908.000000 FREE                        NO                       
LEAVING_SYSTEM_3 908.430000 FREE                        NO                       
PELTIER          880.000000 TIMESERIES PELTIER_2YR      NO                       

[STORAGE]
;;Name           Elev.    MaxDepth   InitDepth  Shape      Curve Name/Params            N/A      Fevap    Psi      Ksat     IMD     
;;-------------- -------- ---------- ----------- ---------- ---------------------------- -------- --------          -------- --------
S_ACD72_01       886.000000 10.000000  1.660000   FUNCTIONAL 100       0         0        0.000000 0.000000
S_ACD72_02       894.000000 10.000000  0.000000   FUNCTIONAL 100       0         0        0.000000 0.000000
S_ACD72_03       899.000000 10.000000  0.000000   FUNCTIONAL 100       0         0        0.000000 0.000000
S_ACD72_04       898.000000 10.000000  0.000000   FUNCTIONAL 100       0         0        0.000000 0.000000
S_ACD72_04B      898.000000 10.000000  0.000000   FUNCTIONAL 100       0         0        0.000000 0.000000
S_ACD72_05       895.000000 10.000000  2.000000   FUNCTIONAL 100       0         0        0.000000 0.000000
S_ACD72_06       898.000000 10.000000  0.000000   FUNCTIONAL 100       0         0        0.000000 0.000000
S_ACD72_07       901.000000 10.000000  2.000000   FUNCTIONAL 100       0         0        0.000000 0.000000
S_ACD72_08       908.000000 10.000000  0.000000   FUNCTIONAL 100       0         0        0.000000 0.000000
S_ACD72_09       897.000000 10.000000  2.000000   FUNCTIONAL 100       0         0        0.000000 0.000000
S_ACD72_10       902.000000 10.000000  2.000000   FUNCTIONAL 100       0         0        0.000000 0.000000
S_ACD72_11       905.000000 10.000000  0.000000   FUNCTIONAL 100       0         0        0.000000 0.000000
S_ACD72_12       906.000000 10.000000  2.000000   FUNCTIONAL 100       0         0        0.000000 0.000000
S_ACD72_14       908.000000 10.000000  0.000000   FUNCTIONAL 100       0         0        0.000000 0.000000
S_ACD72_15       909.000000 10.000000  0.000000   FUNCTIONAL 100       0         0        0.000000 0.000000
S_ACD72_16       909.000000 10.000000  0.000000   FUNCTIONAL 100       0         0        0.000000 0.000000
S_ACD72_17       911.000000 10.000000  0.000000   FUNCTIONAL 100       0         0        0.000000 0.000000

[CONDUITS]
;;Name           From Node        To Node          Length     Roughness  InOffset   OutOffset  InitFlow   MaxFlow   
;;-------------- ---------------- ---------------- ---------- ---------- ---------- ---------- ---------- ----------
BR11_01          BR11_01          MT_06            400.000000 0.013000   0.000000   0.000000   0.000000   0.000000  
BR11_02          BR11_02          BR11_01          604.410386 0.013000   0.000000   0.000000   0.000000   0.000000  
BR11_03          BR11_03          BR11_02          601.824775 0.013000   0.000000   0.000000   0.000000   0.000000  
BR11_04          BR11_04          BR11_03          282.705982 0.013000   0.000000   0.000000   0.000000   0.000000  
BR11_05          BR11_05          BR11_04          294.011757 0.013000   0.000000   0.000000   0.000000   0.000000  
BR11_06          BR11_06          BR11_05          483.320932 0.013000   0.000000   0.000000   0.000000   0.000000  
BR11_07          BR11_07          BR11_06          412.833601 0.013000   0.000000   0.000000   0.000000   0.000000  
BR11_08          BR11_08          BR11_07          452.850990 0.013000   0.000000   0.000000   0.000000   0.000000  
BR11_09          BR11_09          BR11_08          201.693454 0.013000   0.000000   0.000000   0.000000   0.000000  
BR11_10          BR11_10          BR11_09          1397.169002 0.013000   0.000000   0.000000   0.000000   0.000000  
BR11_11          BR11_11          BR11_10          213.000888 0.013000   0.000000   0.000000   0.000000   0.000000  
BR11_L10         BR11_L10         BR11_10          500.000000 0.013000   0.300000   0.000000   0.000000   0.000000  
BR11_L2          BR11_L2          BR11_03          900.002651 0.013000   0.000000   0.000000   0.000000   0.000000  
BR11_L4A_01      BR11_L4A_01      BR11_05          1007.932590 0.013000   0.000000   0.000000   0.000000   0.000000  
BR11_L4_02       BR11_L4A_02      BR11_L4A_01      640.526304 0.013000   0.000000   0.000000   0.000000   0.000000  
BR1_01           BR1_01           MT_03            254.321491 0.013000   0.000000   0.000000   0.000000   0.000000  
BR1_02           BR1_02           BR1_01           199.135674 0.013000   0.000000   0.000000   0.000000   0.000000  
BR1_03           BR1_03           BR1_03B          152.920000 0.013000   0.000000   0.000000   0.000000   0.000000  
; Splitted conduit
BR1_03B          BR1_03B          BR1_02           454.550000 0.013000   0.000000   0.000000   0.000000   0.000000  
BR1_04           BR1_04           BR1_03           100.000000 0.013000   0.000000   0.000000   0.000000   0.000000  
BR1_05           BR1_05           BR1_04           370.463561 0.013000   0.000000   0.000000   0.000000   0.000000  
BR1_06           BR1_06           BR1_05           77.225503  0.013000   0.000000   0.000000   0.000000   0.000000  
BR1_07           BR1_07           BR1_06           426.643674 0.013000   0.000000   0.000000   0.000000   0.000000  
BR1_08           BR1_08           BR1_07           100.000632 0.013000   0.000000   0.000000   0.000000   0.000000  
BR1_09           BR1_09           BR1_08           197.929450 0.013000   0.000000   0.000000   0.000000   0.000000  
BR1_10           BR1_10           BR1_09           200.001247 0.013000   0.000000   0.000000   0.000000   0.000000  
BR1_L11          BR1_L11          BR1_09           1225.003654 0.013000   0.000000   0.000000   0.000000   0.000000  
CULVERT_01       S_ACD72_01       MT_01            88.000000  0.013000   1.660000   0.527000   0.000000   0.000000  
; Assumed 18" culvert.
CULVERT_03       S_ACD72_03       OVERLAND_03J     40.000000  0.013000   2.000000   1.440000   0.000000   0.000000  
MT_01            MT_01            MT_00            612.542746 0.045000   0.000000   0.000000   0.000000   0.000000  
MT_02            MT_02            MT_01            377.910636 0.045000   0.000000   0.000000   0.000000   0.000000  
MT_03            MT_03            MT_02            843.750158 0.013000   0.000000   0.000000   0.000000   0.000000  
MT_04            MT_04            MT_03            1085.970751 0.013000   0.000000   0.000000   0.000000   0.000000  
MT_05            MT_05            MT_04            849.125240 0.013000   0.000000   0.000000   0.000000   0.000000  
MT_06            MT_06            MT_05            654.349228 0.013000   0.000000   0.000000   0.000000   0.000000  
MT_07            MT_07            MT_06            335.180685 0.013000   0.000000   0.000000   0.000000   0.000000  
MT_08            MT_08            MT_07            305.627615 0.013000   0.000000   0.000000   0.000000   0.000000  
MT_09            MT_09            MT_08            80.257579  0.013000   0.000000   0.000000   0.000000   0.000000  
MT_10            MT_10            MT_09            121.267500 0.013000   0.000000   0.000000   0.000000   0.000000  
MT_11            MT_11            MT_10            575.662345 0.013000   0.000000   0.000000   0.000000   0.000000  
MT_12            MT_12            MT_11            116.701338 0.013000   0.000000   0.000000   0.000000   0.000000  
MT_13            MT_13            MT_12            369.466016 0.013000   0.000000   0.000000   0.000000   0.000000  
MT_14            MT_14            MT_13            508.234955 0.013000   0.000000   0.000000   0.000000   0.000000  
; added to reflect real flooding conditions
OVERLAND_01      MT_00            S_ACD72_01       424.000000 0.045000   4.027000   3.050000   0.000000   0.000000  
OVERLAND_01B     S_ACD72_01       MT_02            31.000000  0.045000   4.700000   3.440000   0.000000   0.000000  
; added to reflect real flooding, bottom width narrowed
OVERLAND_02      S_ACD72_02       S_ACD72_01       1072.000000 0.045000   1.030000   8.930000   0.000000   0.000000  
OVERLAND_03      S_ACD72_03       OVERLAND_03J     33.000000  0.040000   3.460000   902.360000 0.000000   0.000000  
OVERLAND_03B     OVERLAND_03J     S_ACD72_02       591.000000 0.045000   0.000000   0.000000   0.000000   0.000000  
; bottom width narrowed
OVERLAND_06      S_ACD72_06       S_ACD72_04B      22.000000  0.040000   2.100000   2.000000   0.000000   0.000000  
OVERLAND_07      S_ACD72_03       S_ACD72_04       418.000000 0.050000   3.310000   -898.000000 0.000000   0.000000  
OVERLAND_BR11_01 OVERLAND_BR11_01 S_ACD72_09       454.000000 0.010000   0.000000   0.000000   0.000000   0.000000  
OVERLAND_BR11_02 OVERLAND_BR11_02 OVERLAND_BR11_01 608.000000 0.050000   0.000000   0.000000   0.000000   0.000000  
OVERLAND_BR11_03 S_ACD72_12       OVERLAND_BR11_02 492.000000 0.050000   4.250000   0.000000   0.000000   0.000000  
OVERLAND_BR1_05  S_ACD72_04B      S_ACD72_04       60.000000  0.040000   4.570000   4.470000   0.000000   0.000000  
OVERLAND_BR1_MT  S_ACD72_07       S_ACD72_09       858.000000 0.050000   3.690000   0.000000   0.000000   0.000000  
OVERLAND_LEAVING1 S_ACD72_08       LEAVING_SYSTEM1  677.000000 0.050000   2.220000   0.000000   0.000000   0.000000  
OVERLAND_LEAVING2 S_ACD72_14       LEAVING_SYSTEM2  39.000000  0.050000   3.990000   0.000000   0.000000   0.000000  
OVERLAND_LEAVING3 BR11_L10         LEAVING_SYSTEM_3 570.000000 0.050000   4.050000   0.000000   0.000000   0.000000  
OVERLAND_LEAVING4 S_ACD72_17       LEAVING_SYSTEM4  296.000000 0.045000   2.790000   0.000000   0.000000   0.000000  
OVERLAND_MT_06   S_ACD72_09       S_ACD72_05       492.000000 0.050000   4.650000   0.000000   0.000000   0.000000  
OVERLAND_MT_11   S_ACD72_10       S_ACD72_09       672.000000 0.050000   3.300000   0.000000   0.000000   0.000000  
PELTIER          MT_00            PELTIER          100.000000 0.045000   0.000000   5.000000   0.000000   0.000000  

[ORIFICES]
;;Name           From Node        To Node          Type         Offset     Qcoeff     Gated    CloseTime 
;;-------------- ---------------- ---------------- ------------ ---------- ---------- -------- ----------
; edited to 12" from 8" to accomadate more water to reflect re
O_ACD72_02       BR1_01           S_ACD72_02       BOTTOM       0.000000   0.650000   NO       0         
O_ACD72_04       S_ACD72_04       BR1_04           BOTTOM       0.000000   0.650000   NO       0         
O_ACD72_04B      S_ACD72_04B      BR1_05           BOTTOM       0.000000   0.650000   NO       0         
O_ACD72_04_2     S_ACD72_04       BR1_03B          BOTTOM       0.000000   0.650000   NO       0         
O_ACD72_05       S_ACD72_05       MT_05            BOTTOM       2.000000   0.650000   NO       0         
O_ACD72_06       S_ACD72_06       BR1_05           BOTTOM       0.000000   0.650000   NO       0         
O_ACD72_07       S_ACD72_07       BR1_10           BOTTOM       2.000000   0.650000   NO       0         
O_ACD72_08       S_ACD72_08       BR1_L11          BOTTOM       0.000000   0.650000   NO       0         
O_ACD72_09       S_ACD72_09       MT_06            BOTTOM       2.000000   0.650000   NO       0         
O_ACD72_10       S_ACD72_10       MT_11            BOTTOM       2.000000   0.650000   NO       0         
O_ACD72_11       S_ACD72_11       MT_14            BOTTOM       0.000000   0.650000   NO       0         
O_ACD72_12A      S_ACD72_12       BR11_L2          BOTTOM       2.000000   0.650000   NO       0         
O_ACD72_12B      S_ACD72_12       BR11_05          BOTTOM       2.000000   0.650000   NO       0         
O_ACD72_14       S_ACD72_14       BR11_07          BOTTOM       2.000000   0.650000   NO       0         
O_ACD72_15A      S_ACD72_15       BR11_11          BOTTOM       0.000000   0.650000   NO       0         
O_ACD72_15B      S_ACD72_15       BR11_L10         BOTTOM       0.000000   0.650000   NO       0         
O_ACD72_16       S_ACD72_16       BR11_L4A_01      BOTTOM       0.000000   0.650000   NO       0         
O_ACD72_17       S_ACD72_17       BR11_L4A_02      BOTTOM       0.000000   0.650000   NO       0         

[XSECTIONS]
;;Link           Shape        Geom1            Geom2      Geom3      Geom4      Barrels    Culvert   
;;-------------- ------------ ---------------- ---------- ---------- ---------- ---------- ----------
BR11_01          CIRCULAR     0.666666         0.000000   0.000000   0.000000   1          0         
BR11_02          CIRCULAR     0.666666         0.000000   0.000000   0.000000   1          0         
BR11_03          CIRCULAR     0.666666         0.000000   0.000000   0.000000   1          0         
BR11_04          CIRCULAR     0.666666         0.000000   0.000000   0.000000   1          0         
BR11_05          CIRCULAR     0.666666         0.000000   0.000000   0.000000   1          0         
BR11_06          CIRCULAR     0.666666         0.000000   0.000000   0.000000   1          0         
BR11_07          CIRCULAR     0.666666         0.000000   0.000000   0.000000   1          0         
BR11_08          CIRCULAR     0.666666         0.000000   0.000000   0.000000   1          0         
BR11_09          CIRCULAR     0.666666         0.000000   0.000000   0.000000   1          0         
BR11_10          CIRCULAR     0.666666         0.000000   0.000000   0.000000   1          0         
BR11_11          CIRCULAR     0.666666         0.000000   0.000000   0.000000   1          0         
BR11_L10         CIRCULAR     0.500000         0.000000   0.000000   0.000000   1          0         
BR11_L2          CIRCULAR     0.416667         0.000000   0.000000   0.000000   1          0         
BR11_L4A_01      CIRCULAR     0.500000         0.000000   0.000000   0.000000   1          0         
BR11_L4_02       CIRCULAR     0.416666         0.000000   0.000000   0.000000   1          0         
BR1_01           CIRCULAR     0.833333         0.000000   0.000000   0.000000   1          0         
BR1_02           CIRCULAR     0.833333         0.000000   0.000000   0.000000   1          0         
BR1_03           CIRCULAR     0.833333         0.000000   0.000000   0.000000   1          0         
BR1_03B          CIRCULAR     0.833333         0.000000   0.000000   0.000000   1          0         
BR1_04           CIRCULAR     0.833333         0.000000   0.000000   0.000000   1          0         
BR1_05           CIRCULAR     0.666667         0.000000   0.000000   0.000000   1          0         
BR1_06           CIRCULAR     0.666667         0.000000   0.000000   0.000000   1          0         
BR1_07           CIRCULAR     0.666666         0.000000   0.000000   0.000000   1          0         
BR1_08           CIRCULAR     0.500000         0.000000   0.000000   0.000000   1          0         
BR1_09           CIRCULAR     0.500000         0.000000   0.000000   0.000000   1          0         
BR1_10           CIRCULAR     0.500000         0.000000   0.000000   0.000000   1          0         
BR1_L11          CIRCULAR     0.416666         0.000000   0.000000   0.000000   1          0         
CULVERT_01       CIRCULAR     1.500000         0.000000   0.000000   0.000000   1          0         
CULVERT_03       CIRCULAR     1.500000         0.000000   0.000000   0.000000   1          0         
MT_01            IRREGULAR    MT_01            0          0          0          1                    
MT_02            IRREGULAR    MT_02            0          0          0          1                    
MT_03            CIRCULAR     1.250000         0.000000   0.000000   0.000000   1          0         
MT_04            CIRCULAR     1.250000         0.000000   0.000000   0.000000   1          0         
MT_05            CIRCULAR     1.166667         0.000000   0.000000   0.000000   1          0         
MT_06            CIRCULAR     1.166667         0.000000   0.000000   0.000000   1          0         
MT_07            CIRCULAR     0.833333         0.000000   0.000000   0.000000   1          0         
MT_08            CIRCULAR     0.833333         0.000000   0.000000   0.000000   1          0         
MT_09            CIRCULAR     0.666666         0.000000   0.000000   0.000000   1          0         
MT_10            CIRCULAR     0.666666         0.000000   0.000000   0.000000   1          0         
MT_11            CIRCULAR     0.666666         0.000000   0.000000   0.000000   1          0         
MT_12            CIRCULAR     0.666666         0.000000   0.000000   0.000000   1          0         
MT_13            CIRCULAR     0.666666         0.000000   0.000000   0.000000   1          0         
MT_14            CIRCULAR     0.666666         0.000000   0.000000   0.000000   1          0         
OVERLAND_01      IRREGULAR    OVERLAND_01      0          0          0          1                    
OVERLAND_01B     IRREGULAR    OVERLAND_01B     0          0          0          1                    
OVERLAND_02      IRREGULAR    OVERLAND_2       0          0          0          1                    
OVERLAND_03      IRREGULAR    OVERLAND_03      0          0          0          1                    
OVERLAND_03B     IRREGULAR    OVERLAND_03B     0          0          0          1                    
OVERLAND_06      IRREGULAR    OVERLAND_06      0          0          0          1                    
OVERLAND_07      IRREGULAR    OVERLAND_07      0          0          0          1                    
OVERLAND_BR11_01 IRREGULAR    OVERLAND_BR11_01 0          0          0          1                    
OVERLAND_BR11_02 IRREGULAR    OVERLAND_BR11_02 0          0          0          1                    
OVERLAND_BR11_03 IRREGULAR    OVERLAND_BR11_03 0          0          0          1                    
OVERLAND_BR1_05  IRREGULAR    OVERLAND_BR1_05  0          0          0          1                    
OVERLAND_BR1_MT  IRREGULAR    OVERLAND_BR1_MT  0          0          0          1                    
OVERLAND_LEAVING1 IRREGULAR    OVERLAND_LEAVING1 0          0          0          1                    
OVERLAND_LEAVING2 IRREGULAR    OVERLAND_LEAVING2 0          0          0          1                    
OVERLAND_LEAVING3 IRREGULAR    OVERLAND_LEAVING3 0          0          0          1                    
OVERLAND_LEAVING4 IRREGULAR    OVERLAND_LEAVING4 0          0          0          1                    
OVERLAND_MT_06   IRREGULAR    OVERLAND_MT_06   0          0          0          1                    
OVERLAND_MT_11   IRREGULAR    OVERLAND_MT_11   0          0          0          1                    
PELTIER          TRAPEZOIDAL  5.000000         20.000000  20.000000  20.000000  1          0         
O_ACD72_02       CIRCULAR     1.000000         0          0          0
O_ACD72_04       CIRCULAR     0.667000         0          0          0
O_ACD72_04B      CIRCULAR     0.667000         0          0          0
O_ACD72_04_2     CIRCULAR     0.667000         0          0          0
O_ACD72_05       CIRCULAR     0.667000         0          0          0
O_ACD72_06       CIRCULAR     0.667000         0          0          0
O_ACD72_07       CIRCULAR     0.500000         0          0          0
O_ACD72_08       CIRCULAR     0.417000         0          0          0
O_ACD72_09       CIRCULAR     0.500000         0          0          0
O_ACD72_10       CIRCULAR     0.667000         0          0          0
O_ACD72_11       CIRCULAR     0.500000         0          0          0
O_ACD72_12A      CIRCULAR     0.500000         0          0          0