[TITLE]
Scenario Run :  SCSDIMUH

[OPTIONS]
;Option and Files Scenario Set: SCSDIMENSIONLESS
FLOW_UNITS		CFS
INFILTRATION		CURVE_NUMBER
FLOW_ROUTING		DYNWAVE
LINK_OFFSETS		DEPTH
MIN_SLOPE		0.000000
ALLOW_PONDING		NO
SKIP_STEADY_STATE 	NO
IGNORE_RAINFALL		NO
IGNORE_SNOWMELT		YES
IGNORE_GROUNDWATER	YES
IGNORE_QUALITY		YES

START_DATE		07/15/1977
START_TIME		00:00
REPORT_START_DATE	07/15/1977
REPORT_START_TIME	00:00
END_DATE		11/15/1977
END_TIME		06:00
SWEEP_START		01/01
SWEEP_END		01/01
DRY_DAYS		7.000000
REPORT_STEP		00:01:00
WET_STEP		00:05:00
DRY_STEP		00:05:00
ROUTING_STEP		10

INERTIAL_DAMPING	NONE
NORMAL_FLOW_LIMITED	BOTH
FORCE_MAIN_EQUATION	H-W
VARIABLE_STEP		0.750000
LENGTHENING_STEP	0
MIN_SURFAREA		12.566000
MAX_TRIALS		4
HEAD_TOLERANCE	0.005000
MINIMUM_STEP		0.000000

SYS_FLOW_TOL		5
LAT_FLOW_TOL		5

[FILES]

[RAINGAGES]
GAGE1	INTENSITY	1.000000	1.000000	FILE	"C:\Users\dickinre\Desktop\Nexrad_2014_07.txt"	379	IN
GAGE500YEAR	INTENSITY	1.000000	1.000000	TIMESERIES	500YEAR		

[HYDROGRAPHS]
; 
2050RTK	GAGE1
2050RTK	ALL	Short	0.020000	1.000000	1.000000	1.000000	1.000000	0.000000
2050RTK	ALL	Medium	0.020000	2.000000	2.000000	1.000000	1.000000	0.000000
2050RTK	ALL	Long	0.020000	3.000000	3.000000	1.000000	1.000000	0.000000
; 
BASERTK	GAGE1
BASERTK	ALL	Short	0.010000	1.000000	2.000000	1.000000	1.000000	0.000000
BASERTK	ALL	Medium	0.010000	2.000000	3.000000	1.000000	1.000000	0.000000
BASERTK	ALL	Long	0.010000	3.000000	4.000000	1.000000	1.000000	0.000000

[EVAPORATION]
CONSTANT	0.000000
DRY_ONLY	NO
RECOVERY	EVAPORATION

[TEMPERATURE]
; BASE Run Climatology Settings

[SUBCATCHMENTS]
45	GAGE1	C	1.067258	0.000000	500.000000	1.000000	0.000000
47.5	GAGE1	B	0.503576	0.000000	500.000000	1.000000	0.000000
50	GAGE1	B	0.688776	0.000000	500.000000	1.000000	0.000000
52.5	GAGE1	B	1.405838	0.000000	500.000000	1.000000	0.000000
55	GAGE1	C	0.579845	0.000000	500.000000	1.000000	0.000000
57.5	GAGE1	C	0.794172	0.000000	500.000000	1.000000	0.000000
60	GAGE1	C	1.330074	0.000000	500.000000	1.000000	0.000000
62.5	GAGE1	B	1.201949	0.000000	500.000000	1.000000	0.000000
65	GAGE1	B	1.184439	0.000000	500.000000	1.000000	0.000000
67.6	GAGE1	B	0.386058	0.000000	500.000000	1.000000	0.000000
70	GAGE1	B	0.307937	0.000000	500.000000	1.000000	0.000000
72.5	GAGE1	B	0.964051	0.000000	500.000000	1.000000	0.000000
75	GAGE1	B	1.286597	0.000000	500.000000	1.000000	0.000000
77.5	GAGE1	B	3.215955	0.000000	500.000000	1.000000	0.000000
80	GAGE1	B	2.295827	0.000000	500.000000	1.000000	0.000000
82.5	GAGE1	B	1.895046	0.000000	500.000000	1.000000	0.000000
85	GAGE1	B	1.083781	0.000000	500.000000	1.000000	0.000000
87.5	GAGE1	B	2.426068	0.000000	500.000000	1.000000	0.000000
90	GAGE1	B	7.273174	0.000000	500.000000	1.000000	0.000000
92.5	GAGE1	B	6.542052	0.000000	500.000000	1.000000	0.000000
95	GAGE1	G	8.131895	0.000000	200.000000	1.000000	0.000000
96.5	GAGE1	C	3.617405	0.000000	600.000000	1.000000	0.000000
98	GAGE1	A	11.676852	0.000000	600.000000	1.000000	0.000000

[SUBAREAS]
45	0.015000	0.410000	0.000000	0.000000	25.000000	OUTLET
47.5	0.015000	0.410000	0.000000	0.000000	25.000000	OUTLET
50	0.015000	0.410000	0.000000	0.000000	25.000000	OUTLET
52.5	0.015000	0.410000	0.000000	0.000000	25.000000	OUTLET
55	0.015000	0.410000	0.000000	0.000000	25.000000	OUTLET
57.5	0.015000	0.410000	0.000000	0.000000	25.000000	OUTLET
60	0.015000	0.410000	0.000000	0.000000	25.000000	OUTLET
62.5	0.015000	0.410000	0.000000	0.000000	25.000000	OUTLET
65	0.015000	0.410000	0.000000	0.000000	25.000000	OUTLET
67.6	0.015000	0.410000	0.000000	0.000000	25.000000	OUTLET
70	0.015000	0.410000	0.000000	0.000000	25.000000	OUTLET
72.5	0.015000	0.410000	0.000000	0.000000	25.000000	OUTLET
75	0.015000	0.410000	0.000000	0.000000	25.000000	OUTLET
77.5	0.015000	0.410000	0.000000	0.000000	25.000000	OUTLET
80	0.015000	0.410000	0.000000	0.000000	25.000000	OUTLET
82.5	0.015000	0.410000	0.000000	0.000000	25.000000	OUTLET
85	0.015000	0.410000	0.000000	0.000000	25.000000	OUTLET
87.5	0.015000	0.410000	0.000000	0.000000	25.000000	OUTLET
90	0.015000	0.410000	0.000000	0.000000	25.000000	OUTLET
92.5	0.015000	0.410000	0.000000	0.000000	25.000000	OUTLET
95	0.015000	0.410000	0.000000	0.000000	25.000000	OUTLET
96.5	0.015000	0.410000	0.000000	0.000000	25.000000	OUTLET
98	0.015000	0.410000	0.000000	0.000000	25.000000	OUTLET

[INFILTRATION]
45	45.000000	1.000000	1.000000
47.5	47.500000	1.000000	1.000000
50	50.000000	1.000000	1.000000
52.5	52.500000	1.000000	1.000000
55	55.000000	1.000000	1.000000
57.5	57.500000	1.000000	1.000000
60	60.000000	1.000000	1.000000
62.5	62.500000	1.000000	1.000000
65	65.000000	1.000000	1.000000
67.6	67.600000	1.000000	1.000000
70	70.000000	1.000000	1.000000
72.5	72.500000	1.000000	1.000000
75	75.000000	1.000000	1.000000
77.5	77.500000	1.000000	1.000000
80	80.000000	1.000000	1.000000
82.5	82.500000	1.000000	1.000000
85	85.000000	1.000000	1.000000
87.5	87.500000	1.000000	1.000000
90	90.000000	1.000000	1.000000
92.5	92.500000	1.000000	1.000000
95	95.000000	1.000000	1.000000
96.5	96.500000	1.000000	1.000000
98	98.000000	1.000000	1.000000

[AQUIFERS]
AQ	0.500000	0.150000	0.300000	10.000000	1.000000	15.000000	0.350000	0.350000	0.002000	0.000000	5.000000	0.250000

[GROUNDWATER]
92.5	AQ	B	0.000000	1.000000	1.000000	1.000000	1.000000	0.000000	0.000000	0.000000	0.000000	0.000000	0.250000
95	AQ	C	0.000000	1.000000	1.000000	1.000000	1.000000	0.000000	0.000000	0.000000	0.000000	0.000000	0.250000
96.5	AQ	B	0.000000	1.000000	1.000000	1.000000	1.000000	0.000000	0.000000	0.000000	0.000000	0.000000	0.250000
98	AQ	G	0.000000	1.000000	1.000000	1.000000	1.000000	0.000000	0.000000	0.000000	0.000000	0.000000	0.250000

[GWF]

[SNOWPACKS]

[LID_CONTROLS]
LID-102	BC
LID-102	SURFACE	1.000000	0.100000	0.100000	1.000000	5.000000
LID-102	SOIL	1.000000	0.500000	0.200000	0.100000	0.500000	10.000000	3.500000
LID-102	STORAGE	1.000000	0.750000	0.500000	0.000000
LID-102	DRAIN	0.000000	0.500000	6.000000	6.000000	0.000000	0.000000

BR	BC
BR	SURFACE	1.000000	0.100000	0.100000	1.000000	5.000000
BR	SOIL	1.000000	0.500000	0.200000	0.100000	0.500000	10.000000	3.500000
BR	STORAGE	1.000000	0.750000	0.500000	0.000000
BR	DRAIN	0.000000	0.500000	6.000000	6.000000	0.000000	0.000000

RG	RG
RG	SURFACE	5.000000	0.100000	0.100000	1.000000	5.000000
RG	SOIL	1.000000	0.500000	0.200000	0.100000	0.500000	10.000000	3.500000
RG	STORAGE	1.000000	0.750000	0.500000	0.000000


[JUNCTIONS]
A	1.100000	20.000000	0.000000	0.000000	0.000000
B	9.000000	20.000000	0.000000	0.000000	0.000000
C	8.000000	6.000000	0.000000	0.000000	0.000000
; New Junction
E	0.500000	4.000000	0.000000	0.000000	0.000000
G	3.000000	5.000000	0.000000	0.000000	0.000000

[OUTFALLS]
OUTLET	0.000000	FREE	NO

[DIVIDERS]

[STORAGE]

[CONDUITS]
A	A	E	220.000000	0.015000	0.000000	0.000000	0.000000	0.000000
B	G	A	182.780407	0.015000	0.000000	0.000000	0.000000	0.000000
C	B	C	505.000000	0.024000	0.000000	0.000000	0.000000	0.000000
D	C	G	263.256269	0.024000	0.000000	0.000000	0.000000	0.000000
; New Conduit
F	E	OUTLET	255.174254	0.015000	0.000000	0.000000	0.000000	0.000000

[PUMPS]

[ORIFICES]

[WEIRS]

[XSECTIONS]
A	CIRCULAR	0.300000	0.000000	0.000000	0.000000	1	0
B	CIRCULAR	0.300000	0.000000	0.000000	0.000000	1	0
C	CIRCULAR	0.300000	0.000000	0.000000	0.000000	1	0
D	CIRCULAR	0.300000	0.000000	0.000000	0.000000	1	0
F	CIRCULAR	0.300000	0.000000	0.000000	0.000000	1	0

[TRANSECTS]

[LOSSES]
A	0.000000	0.000000	0.000000	NO	0.100000
B	0.000000	0.000000	0.000000	NO	0.100000
C	0.000000	0.000000	0.000000	NO	0.000000
D	0.000000	0.000000	0.000000	NO	0.000000
F	0.000000	0.000000	0.000000	NO	0.100000

[CONTROLS]

[POLLUTANTS]

[LANDUSES]

[COVERAGES]

[BUILDUP]

[WASHOFF]

[TREATMENT]

[INFLOWS]
C	FLOW	""	FLOW  1.0	1.000000	0.000000

[DWF]
A	FLOW	0.031270	""	""	""	""
B	FLOW	0.031270	""	""	""	""
C	FLOW	0.031270	""	""	""	""
G	FLOW	0.031270	""	""	""	""

[RDII]

[LOADINGS]

[CURVES]
; 
10YR_IDF	GENERAL	1.000000	370.020000
10YR_IDF	5.000000	117.830000
10YR_IDF	10.000000	71.980000
10YR_IDF	15.000000	53.950000
10YR_IDF	20.000000	43.970000
10YR_IDF	25.000000	37.520000
10YR_IDF	30.000000	32.960000
10YR_IDF	45.000000	24.710000
10YR_IDF	60.000000	20.140000
10YR_IDF	120.000000	12.300000
10YR_IDF	240.000000	7.510000
10YR_IDF	360.000000	5.630000
; 
2YR_IDF	GENERAL	1.000000	259.590000
2YR_IDF	5.000000	78.810000
2YR_IDF	10.000000	47.170000
2YR_IDF	15.000000	34.930000
2YR_IDF	20.000000	28.230000
2YR_IDF	25.000000	23.930000
2YR_IDF	30.000000	20.900000
2YR_IDF	45.000000	15.480000
2YR_IDF	60.000000	12.510000
2YR_IDF	120.000000	7.490000
2YR_IDF	240.000000	4.480000
2YR_IDF	360.000000	3.320000
; 
CUNETTE	SHAPE	0.000000	0.000000
CUNETTE	0.020000	0.140000
CUNETTE	0.040000	0.195950
CUNETTE	0.060000	0.237500
CUNETTE	0.080000	0.271300
CUNETTE	0.100000	0.300000
CUNETTE	0.120000	0.324950
CUNETTE	0.140000	0.347000
CUNETTE	0.160000	0.366600
CUNETTE	0.180000	0.384200
CUNETTE	0.200000	0.400000
CUNETTE	0.220000	0.414250
CUNETTE	0.240000	0.427100
CUNETTE	0.260000	0.438650
CUNETTE	0.280000	0.449000
CUNETTE	0.300000	0.458250
CUNETTE	0.320000	0.933000
CUNETTE	0.340000	0.947400
CUNETTE	0.360000	0.960000
CUNETTE	0.380000	0.970800
CUNETTE	0.400000	0.979800
CUNETTE	0.420000	0.987100
CUNETTE	0.440000	0.992800
CUNETTE	0.460000	0.996800
CUNETTE	0.480000	0.999200
CUNETTE	0.500000	1.000000
CUNETTE	0.520000	0.999200
CUNETTE	0.540000	0.996800
CUNETTE	0.560000	0.992800
CUNETTE	0.580000	0.987100
CUNETTE	0.600000	0.979800
CUNETTE	0.620000	0.970800
CUNETTE	0.640000	0.960000
CUNETTE	0.660000	0.947400
CUNETTE	0.680000	0.933000
CUNETTE	0.700000	0.916500
CUNETTE	0.720000	0.898000
CUNETTE	0.740000	0.877300
CUNETTE	0.760000	0.854200
CUNETTE	0.780000	0.828500
CUNETTE	0.800000	0.800000
CUNETTE	0.820000	0.768400
CUNETTE	0.840000	0.733200
CUNETTE	0.860000	0.694000
CUNETTE	0.880000	0.649900
CUNETTE	0.900000	0.600000
CUNETTE	0.920000	0.542600
CUNETTE	0.940000	0.475000
CUNETTE	0.960000	0.391900
CUNETTE	0.980000	0.280000
CUNETTE	1.000000	0.000000

[TIMESERIES]
RAINSERIES1	07/15/1977	06:30	0.000000
RAINSERIES1	06:35	0.840000
RAINSERIES1	06:40	0.040000
RAINSERIES1	06:45	0.020000
RAINSERIES1	06:50	0.000000
RAINSERIES1	07:05	0.000000
RAINSERIES1	07:10	0.680000
RAINSERIES1	07:15	0.880000
RAINSERIES1	07/15/1977	07:20	2.020000
RAINSERIES1	07:25	2.130000
RAINSERIES1	07:30	0.630000
RAINSERIES1	07:35	2.330000
RAINSERIES1	07:40	0.310000
RAINSERIES1	07/15/1977	07:45	0.200000
RAINSERIES1	07:50	0.000000
RAINSERIES1	08:00	0.000000
RAINSERIES1	08:05	0.020000
RAINSERIES1	07/15/1977	08:10	0.000000
RAINSERIES1	08:25	0.000000
RAINSERIES1	08:30	0.220000
RAINSERIES1	07/15/1977	08:35	2.390000
RAINSERIES1	08:40	0.400000
RAINSERIES1	08:45	0.860000
RAINSERIES1	08:50	2.790000
RAINSERIES1	08:55	1.380000
RAINSERIES1	07/15/1977	09:00	1.080000
RAINSERIES1	09:05	0.640000
RAINSERIES1	09:10	0.020000
RAINSERIES1	09:15	0.150000
RAINSERIES1	09:20	0.000000

CONSTANTRAIN	0:00	0.000000
CONSTANTRAIN	1:00	0.000000
CONSTANTRAIN	2:00	1.000000
CONSTANTRAIN	3:00	0.000000

10YEAR	0:00	0.000000
10YEAR	1:00	0.000000
10YEAR	2:00	3.500000
10YEAR	3:00	0.000000

25YEAR	0:00	0.000000
25YEAR	1:00	0.000000
25YEAR	2:00	5.000000
25YEAR	3:00	0.000000

50YEAR	0:00	0.000000
50YEAR	1:00	0.000000
50YEAR	2:00	7.000000
50YEAR	3:00	0.000000

100YEAR	0:00	0.454545
100YEAR	1:00	0.909091
100YEAR	2:00	2.272727
100YEAR	3:00	0.909091
100YEAR	4:00	0.454545
100YEAR	5:00	0.000000

500YEAR	0:00	0.000000
500YEAR	1:00	0.000000
500YEAR	2:00	15.000000
500YEAR	3:00	0.000000


[PATTERNS]
; 
EVAPORATION	MONTHLY	5.000000	5.000000	2.000000	2.000000	3.000000
EVAPORATION	3.000000	2.000000	2.000000	2.000000	1.000000
EVAPORATION	1.000000	1.000000
; 
NORMALDAYS	DAILY	1.000000	1.000000	1.000000	0.000000	1.000000
NORMALDAYS	1.000000	1.000000
; 
ODDDATYPATTERN	HOURLY	0.000000	0.000000	0.000000	0.000000	0.000000
ODDDATYPATTERN	0.000000	0.000000	1.000000	1.000000	1.000000
ODDDATYPATTERN	1.000000	1.000000	0.000000	0.000000	0.000000
ODDDATYPATTERN	1.000000	1.000000	1.000000	1.000000	1.000000
ODDDATYPATTERN	0.000000	0.000000	0.000000	0.000000
; 
ONEDAY	DAILY	0.000000	0.000000	0.000000	1.000000	0.000000
ONEDAY	0.000000	0.000000

[ADJUSTMENTS]
TEMPERATURE	0.000000	0.000000	0.000000	0.000000	0.000000	0.000000	0.000000	0.000000	0.000000	0.000000	0.000000	0.000000
EVAPORATION	0.000000	0.000000	0.000000	0.000000	0.000000	0.000000	0.000000	0.000000	0.000000	0.000000	0.000000	0.000000
RAINFALL	1.000000	1.000000	1.000000	1.000000	1.000000	1.000000	1.000000	1.000000	1.000000	1.000000	1.000000	1.000000
CONDUCTIVITY	1.000000	1.000000	1.000000	1.000000	1.000000	1.000000	1.000000	1.000000	1.000000	1.000000	1.000000	1.000000

[REPORT]
;Report Option Set: BASE, Base Simulation Report
INPUT YES
CONTINUITY YES
FLOWSTATS YES
CONTROLS NO
AVERAGES NO
SUBCATCHMENTS  ALL
NODES  ALL
LINKS  ALL

[COORDINATES]
A	95.349954	315.595517
B	295.273047	482.198095
C	448.087826	412.110114
E	71.618206	115.208938
G	257.252839	230.765494
OUTLET	-183.420602	123.521958


[POLYGONS]

45	924.944114	711.954142
45	868.058685	633.048546
45	855.213588	634.883560
45	794.658132	634.883560
45	750.617799	671.583837
45	805.668215	724.799238
45	831.358408	724.799238

47.5	260.669103	998.216301
47.5	286.359297	963.351038
47.5	264.339131	956.010983
47.5	229.473868	932.155803
47.5	185.433536	932.155803
47.5	183.598522	943.165886
47.5	178.093480	987.206218

50	603.816692	992.711259
50	636.846941	937.660844
50	633.176913	933.990817
50	583.631540	910.135637
50	567.116415	906.465609
50	515.736027	956.010983
50	532.251152	989.041232

52.5	735.937689	961.516024
52.5	923.109101	948.670927
52.5	919.439073	928.485775
52.5	858.883616	895.455526
52.5	752.452813	869.765332
52.5	691.897356	899.125553
52.5	691.897356	921.145720

55	772.637965	816.549931
55	921.274087	801.869820
55	921.274087	781.684668
55	745.112758	765.169543

57.5	776.307993	581.668159
57.5	868.058685	517.442674
57.5	862.553644	513.772647
57.5	858.883616	500.927550
57.5	840.533478	471.567328
57.5	809.338242	455.052204
57.5	750.617799	515.607660

60	785.483062	376.146608
60	915.769045	313.756138
60	912.099018	315.591151
60	910.264004	304.581068
60	890.078851	271.550819
60	835.028436	236.685556
60	783.648049	245.860625
60	757.957855	288.065944
60	776.307993	346.786387

62.5	746.947772	170.625058
62.5	869.893699	124.749712
62.5	866.223671	113.739629
62.5	860.718630	99.059518
62.5	842.368492	60.524227
62.5	790.988104	20.153923
62.5	756.122841	36.669047
62.5	743.277744	144.934864

65	752.452813	-75.266797
65	858.883616	-122.977157
65	853.378575	-119.307129
65	868.058685	-150.502365
65	805.668215	-198.212725
65	704.742453	-139.492282
65	710.247495	-104.627019
65	713.917523	-89.946908

67.6	506.560958	-209.222808
67.6	625.836858	-187.202641
67.6	618.496803	-200.047738
67.6	596.476637	-231.242974
67.6	510.230986	-240.418043
67.6	502.890931	-242.253057
67.6	502.890931	-214.727849

70	293.699353	-185.367628
70	363.429879	-231.242974
70	361.594865	-236.748015
70	335.904671	-240.418043
70	266.174145	-238.583029
70	258.834089	-242.253057
70	269.844173	-222.067904
70	275.349214	-214.727849
70	282.689269	-201.882752

72.5	123.043065	-141.327295
72.5	222.133813	-167.017489
72.5	231.308882	-185.367628
72.5	222.133813	-196.377711
72.5	201.948660	-223.902918
72.5	108.362954	-225.737932
72.5	79.002733	-200.047738
72.5	73.497691	-172.522531

75	-116.029268	-90.817093
75	48.877484	-102.189973
75	-21.255273	-164.740810
75	-93.283509	-187.486569
75	-127.402148	-181.800129
75	-153.938867	-145.786011
75	-157.729827	-126.831212
75	-133.088588	-100.294493

77.5	-442.051814	64.612260
77.5	-182.371065	-20.684337
77.5	-182.371065	-26.370776
77.5	-188.057505	-32.057216
77.5	-201.325865	-56.698455
77.5	-510.289091	-92.712573
77.5	-548.198689	-71.862294
77.5	-487.543332	3.956902

80	-561.467048	312.920128
80	-447.738254	161.281735
80	-451.529213	155.595296
80	-542.512249	148.013376
80	-641.077205	134.745016
80	-660.032004	197.295854
80	-614.540486	295.860809
80	-569.048968	314.815608

82.5	-650.554604	538.482238
82.5	-546.303209	430.439883
82.5	-550.094169	426.648923
82.5	-667.613924	356.516167
82.5	-728.269281	348.934247
82.5	-705.523522	481.617841

85	-170.998186	822.804226
85	-36.419112	714.761870
85	-207.012304	707.179951
85	-203.221345	781.103667

87.5	37.504605	951.696860
87.5	168.292719	860.713824
87.5	143.651480	792.476547
87.5	-15.568833	767.835308
87.5	-36.419112	796.267507
87.5	-15.568833	894.832462

90	-263.876702	832.281625
90	-354.859738	529.004839
90	-364.337137	523.318399
90	-398.455776	523.318399
90	-430.678934	519.527439
90	-529.243890	544.168678
90	-593.690207	682.538712
90	-574.735408	726.134750
90	-398.455776	855.027384

92.5	448.758022	686.263948
92.5	514.818521	717.459183
92.5	542.343728	755.994474
92.5	463.264767	925.534761
92.5	339.426968	951.585361
92.5	243.585124	737.621398
92.5	276.266721	633.048546
92.5	353.337302	603.688325

95	609.470763	-40.234302
95	676.554634	206.416261
95	422.299351	174.462318
95	214.942787	58.856446
95	100.700575	-22.780953
95	403.949212	-18.214135

96.5	708.718000	347.243000
96.5	648.774531	565.153034
96.5	630.424393	645.893643
96.5	615.744282	702.779072
96.5	562.528880	642.223616
96.5	520.323562	548.637910
96.5	528.415973	460.093904
96.5	599.623685	408.970418
96.5	635.929434	330.271262

98	-219.235004	343.349001
98	64.274634	354.253218
98	195.125237	539.624905
98	122.977433	608.349702
98	126.647461	634.039896
98	-62.358965	628.534855
98	-152.274643	661.565104
98	-317.425889	608.349702
98	-218.335142	547.794246
98	-313.755862	441.363443

[VERTICES]


[SYMBOLS]
GAGE1	242.100000	568.930000
GAGE500YEAR	284.751670	557.000521

[MAP]
DIMENSIONS	-810.929951	-304.276525	1007.604784	1060.239769

