[TITLE]
;;Project Title/Notes

[OPTIONS]
;;Option             Value
FLOW_UNITS           CFS
INFILTRATION         HORTON
FLOW_ROUTING         DYNWAVE
LINK_OFFSETS         DEPTH
MIN_SLOPE            0
ALLOW_PONDING        NO
SKIP_STEADY_STATE    NO

START_DATE           03/31/2003
START_TIME           00:00:00
REPORT_START_DATE    03/31/2003
REPORT_START_TIME    00:00:00
END_DATE             04/01/2003
END_TIME             00:00:00
SWEEP_START          1/1
SWEEP_END            12/31
DRY_DAYS             0
REPORT_STEP          00:15:00
WET_STEP             00:05:00
DRY_STEP             12:00:00
ROUTING_STEP         0:00:01 

INERTIAL_DAMPING     PARTIAL
NORMAL_FLOW_LIMITED  FROUDE
FORCE_MAIN_EQUATION  H-W
VARIABLE_STEP        0.75
LENGTHENING_STEP     0
MIN_SURFAREA         0
MAX_TRIALS           0
HEAD_TOLERANCE       0
SYS_FLOW_TOL         5
LAT_FLOW_TOL         5
MINIMUM_STEP         0.5
THREADS              1

[EVAPORATION]
;;Data Source    Parameters
;;-------------- ----------------
CONSTANT         0.0
DRY_ONLY         NO

[RAINGAGES]
;;Name           Format    Interval SCF      Source    
;;-------------- --------- ------ ------ ----------
;                 Timeseries/  Source           Format/    RecdFreq/
;Name             File         Name             Station    RecdIntvl
;-------------------------------------------------------------------
GAGE1            VOLUME    1:00     1.0      TIMESERIES SERIES1         

[SUBCATCHMENTS]
;;Name           Rain Gage        Outlet           Area     %Imperv  Width    %Slope   CurbLen  SnowPack        
;;-------------- ---------------- ---------------- -------- -------- -------- -------- -------- ----------------
;                                                   Total    Pcnt.             Pcnt.    Curb
;Name             Raingage         Outlet           Area     Imperv   Width    Slope    Length
;---------------------------------------------------------------------------------------------
8                GAGE1            104              173      53.6942  3526     0.0101   0                        
9                GAGE1            104              13       86.1998  1110     0.01     0                        
26               GAGE1            80               1217     32.7497  9433     0.0065   0                        
27               GAGE1            85               2890     29.7284  19682    0.0092   0                        
2                GAGE1            126              3359     38.8328  18814    0.0079   0                        
3                GAGE1            118              1660     41.1403  12818    0.0076   0                        
0                GAGE1            129              7699     36.098   23175    0.0074   0                        
1                GAGE1            121              43       44.0294  2188     0.0149   0                        
6                GAGE1            120              4004     20.5414  14363    0.0077   0                        
24               GAGE1            122              5617     28.3055  20142    0.0047   0                        
25               GAGE1            79               1627     33.3266  9831     0.0061   0                        
19               GAGE1            101              2300     14.8485  17424    0.0088   0                        
18               GAGE1            95               1343     43.9663  11621    0.0107   0                        
28               GAGE1            76               728      44.1322  7897     0.0077   0                        
13               GAGE1            107              2480     14.4308  13728    0.0085   0                        
12               GAGE1            110              1734     35.0313  11492    0.01     0                        
11               GAGE1            117              2840     38.6734  16221    0.0064   0                        
10               GAGE1            114              1085     34.5858  11253    0.0133   0                        
17               GAGE1            108              2808     20.1043  25842    0.0101   0                        
16               GAGE1            109              2920     15.633   16395    0.0081   0                        
15               GAGE1            102              1369     31.8235  11963    0.0114   0                        
14               GAGE1            119              754      40.1243  7380     0.0103   0                        
29               GAGE1            79               980      58.3032  10743    0.0052   0                        
20               GAGE1            92               415      36.263   5956     0.0104   0                        
21               GAGE1            106              1550     27.0672  11528    0.009    0                        
22               GAGE1            98               2140     11.126   12670    0.0077   0                        
23               GAGE1            94               2022     35.4032  10804    0.0066   0                        

[SUBAREAS]
;;Subcatchment   N-Imperv   N-Perv     S-Imperv   S-Perv     PctZero    RouteTo    PctRouted 
;;-------------- ---------- ---------- ---------- ---------- ---------- ---------- ----------
8                0.035      0.25       0.1        0.15       25         OUTLET    
9                0.035      0.25       0.1        0.15       25         OUTLET    
26               0.035      0.25       0.1        0.15       25         OUTLET    
27               0.035      0.25       0.1        0.15       25         OUTLET    
2                0.035      0.25       0.1        0.15       25         OUTLET    
3                0.035      0.25       0.1        0.15       25         OUTLET    
0                0.035      0.25       0.1        0.15       25         OUTLET    
1                0.035      0.25       0.1        0.15       25         OUTLET    
6                0.035      0.25       0.1        0.15       25         OUTLET    
24               0.035      0.25       0.1        0.15       25         OUTLET    
25               0.035      0.25       0.1        0.15       25         OUTLET    
19               0.035      0.25       0.1        0.15       25         OUTLET    
18               0.035      0.25       0.1        0.15       25         OUTLET    
28               0.035      0.25       0.1        0.15       25         OUTLET    
13               0.035      0.25       0.1        0.15       25         OUTLET    
12               0.035      0.25       0.1        0.15       25         OUTLET    
11               0.035      0.25       0.1        0.15       25         OUTLET    
10               0.035      0.25       0.1        0.15       25         OUTLET    
17               0.035      0.25       0.1        0.15       25         OUTLET    
16               0.035      0.25       0.1        0.15       25         OUTLET    
15               0.035      0.25       0.1        0.15       25         OUTLET    
14               0.035      0.25       0.1        0.15       25         OUTLET    
29               0.035      0.25       0.1        0.15       25         OUTLET    
20               0.035      0.25       0.1        0.15       25         OUTLET    
21               0.035      0.25       0.1        0.15       25         OUTLET    
22               0.035      0.25       0.1        0.15       25         OUTLET    
23               0.035      0.25       0.1        0.15       25         OUTLET    

[INFILTRATION]
;;Subcatchment   MaxRate    MinRate    Decay      DryTime    MaxInfil  
;;-------------- ---------- ---------- ---------- ---------- ----------
8                5.289      0.2644     0.0008     0.2        0         
9                3.9757     0.1988     0.0008     0.2        0         
26               5.2086     0.2624     0.0008     0.2        0         
27               5.5399     0.277      0.0008     0.2        0         
2                5.5055     0.2753     0.0008     0.2        0         
3                5.3736     0.2687     0.0008     0.2        0         
0                5.1001     0.255      0.0008     0.2        0         
1                5.2637     0.2632     0.0008     0.2        0         
6                5.6583     0.2829     0.0008     0.2        0         
24               5.6417     0.2828     0.0008     0.2        0         
25               5.1383     0.2574     0.0008     0.2        0         
19               5.6857     0.2843     0.0008     0.2        0         
18               5.1549     0.2577     0.0008     0.2        0         
28               4.7351     0.2368     0.0008     0.2        0         
13               5.7558     0.2878     0.0008     0.2        0         
12               5.4916     0.2746     0.0008     0.2        0         
11               5.5444     0.2772     0.0008     0.2        0         
10               5.5089     0.2754     0.0008     0.2        0         
17               5.7768     0.2888     0.0008     0.2        0         
16               5.8037     0.2902     0.0008     0.2        0         
15               5.7288     0.2866     0.0008     0.2        0         
14               5.474      0.2737     0.0008     0.2        0         
29               4.0716     0.2036     0.0008     0.2        0         
20               5.0835     0.2542     0.0008     0.2        0         
21               5.6647     0.2832     0.0008     0.2        0         
22               5.7688     0.2884     0.0008     0.2        0         
23               5.5812     0.2801     0.0008     0.2        0         

[JUNCTIONS]
;;Name           Elevation  MaxDepth   InitDepth  SurDepth   Aponded   
;;-------------- ---------- ---------- ---------- ---------- ----------
;                 Invert     Max.       Init.      Surcharge  Ponded
;Name             Elev.      Depth      Depth      Depth      Area
;------------------------------------------------------------------------
92               6.56       992.44     0          0          0         
76               0          999        0          0          0         
95               3.28       995.72     0          0          0         
94               82.03      916.97     0          0          0         
129              82.03      916.97     0          0          0         
98               213.26     785.74     0          0          0         
126              82.03      916.97     0          0          0         
121              16.41      982.59     0          0          0         
120              203.42     795.58     0          0          0         
122              49.22      949.78     0          0          0         
109              62.34      936.66     0          0          0         
108              101.71     897.29     0          0          0         
118              52.5       946.5      0          0          0         
119              13.12      985.88     0          0          0         
114              19.69      979.31     0          0          0         
110              3.28       995.72     0          0          0         
106              82.03      916.97     0          0          0         
107              229.67     769.33     0          0          0         
80               3.28       995.72     0          0          0         
103              3.28       995.72     0          0          0         
102              42.65      956.35     0          0          0         
101              82.03      916.97     0          0          0         
117              52.5       946.5      0          0          0         
85               13.12      985.88     0          0          0         
104              9.84       989.16     0          0          0         
105              147.65     851.35     0          0          0         
79               0          999        0          0          0         

[OUTFALLS]
;;Name           Elevation  Type       Stage Data       Gated    Route To        
;;-------------- ---------- ---------- ---------------- -------- ----------------
;                 Invert     Outfall      Stage/Table
;Name             Elev.      Type         Time Series
;----------------------------------------------------
68               0          FIXED      2.5              NO                       

[CONDUITS]
;;Name           From Node        To Node          Length     Roughness  InOffset   OutOffset  InitFlow   MaxFlow   
;;-------------- ---------------- ---------------- ---------- ---------- ---------- ---------- ---------- ----------
;                 Inlet            Outlet                      Manning    Inlet      Outlet     Init.
;Name             Node             Node             Length     N          Height     Height     Flow
;------------------------------------------------------------------------------------------------------------
24               122              95               26269.71   0          15         1          0          0         
25               120              108              21434.3    0          63         30         0          0         
26               126              121              12406.83   0          24         5          0          0         
27               129              121              30168.7    0          25         5          0          0         
2                79               76               8046.13    0          0          0          0          0         
3                80               79               782.53     0          0          0          0          0         
1                76               68               2099.93    0          0          0          0          0         
6                94               92               9421.63    0          24         1          0          0         
7                95               92               1226.46    0          1          1          0          0         
4                85               76               7163.28    0          4          0          0          0         
5                92               79               11745.97   0          1          0          0          0         
8                103              95               9849.05    0          1          1          0          0         
9                102              103              4451.64    0          10         1          0          0         
19               109              114              9810.6     0          17         3          0          0         
18               117              104              10228.31   0          15         1          0          0         
13               105              108              8668.5     0          45         30         0          0         
12               107              105              9565.41    0          68         45         0          0         
11               98               105              8443.26    0          66         45         0          0         
10               104              103              1401.98    0          1          1          0          0         
17               108              109              14810.38   0          30         17         0          0         
16               106              114              3357.31    0          25         3          0          0         
15               110              104              4184.95    0          1          1          0          0         
14               101              109              5605.42    0          26         17         0          0         
20               118              110              3447.28    0          15         1          0          0         
21               119              110              10891.46   0          4          1          0          0         
22               114              119              6858.29    0          3          4          0          0         
23               121              119              1506.2     0          5          4          0          0         

[XSECTIONS]
;;Link           Shape        Geom1            Geom2      Geom3      Geom4      Barrels    Culvert   
;;-------------- ------------ ---------------- ---------- ---------- ---------- ---------- ----------
24               IRREGULAR    13               0          0          0          1                    
25               IRREGULAR    45               0          0          0          1                    
26               IRREGULAR    29               0          0          0          1                    
27               IRREGULAR    28               0          0          0          1                    
2                IRREGULAR    6                0          0          0          1                    
3                IRREGULAR    11               0          0          0          1                    
1                IRREGULAR    2                0          0          0          1                    
6                IRREGULAR    51               0          0          0          1                    
7                IRREGULAR    15               0          0          0          1                    
4                IRREGULAR    5                0          0          0          1                    
5                IRREGULAR    8                0          0          0          1                    
8                IRREGULAR    17               0          0          0          1                    
9                IRREGULAR    53               0          0          0          1                    
19               IRREGULAR    37               0          0          0          1                    
18               IRREGULAR    19               0          0          0          1                    
13               IRREGULAR    44               0          0          0          1                    
12               IRREGULAR    46               0          0          0          1                    
11               IRREGULAR    48               0          0          0          1                    
10               IRREGULAR    57               0          0          0          1                    
17               IRREGULAR    40               0          0          0          1                    
16               IRREGULAR    34               0          0          0          1                    
15               IRREGULAR    22               0          0          0          1                    
14               IRREGULAR    39               0          0          0          1                    
20               IRREGULAR    20               0          0          0          1                    
21               IRREGULAR    24               0          0          0          1                    
22               IRREGULAR    33               0          0          0          1                    
23               IRREGULAR    26               0          0          0          1                    

[TRANSECTS]
;;Transect Data in HEC-2 format
;
;--------------------------------------------------------------------------------------------
NC 0.2      0.2      0.05    
X1 13                41       18       23       0.0      0.0      0.0      0        0       
GR 62.34    0        62.34    98.44    62.34    196.87   62.34    295.31   62.34    393.75  
GR 62.34    492.18   62.34    590.62   62.34    689.06   62.34    787.49   55.78    886.15  
GR 59.06    984.64   52.5     1083.29  49.22    1181.78  42.65    1280.44  39.37    1378.93 
GR 29.53    1477.86  22.97    1576.51  16.41    1675.17  9.84     1773.82  13.12    1872.31 
GR 19.69    1970.97  29.53    2069.9   36.09    2168.55  42.65    2267.21  49.22    2365.86 
GR 52.5     2464.35  62.34    2563.28  68.9     2661.94  65.62    2760.43  65.62    2858.86 
GR 62.34    2957.35  62.34    3055.79  62.34    3154.23  65.62    3252.72  65.62    3351.15 
GR 62.34    3449.65  62.34    3548.08  59.06    3646.57  59.06    3745.01  55.78    3843.5  
GR 55.78    3871.84 
;
NC 0.2      0.2      0.05    
X1 12                73       28       33       0.0      0.0      0.0      0        0       
GR 101.71   0        98.43    98.49    95.15    196.98   82.03    296.29   82.03    394.73  
GR 78.74    493.22   75.46    591.71   75.46    690.15   68.9     788.8    68.9     887.24  
GR 65.62    985.73   59.06    1084.38  49.22    1183.31  49.22    1281.75  49.22    1380.18 
GR 49.22    1478.62  49.22    1577.06  49.22    1675.49  49.22    1773.93  49.22    1872.37 
GR 45.93    1970.86  45.93    2069.29  45.93    2167.73  45.93    2266.17  42.65    2364.66 
GR 42.65    2463.09  39.37    2561.59  39.37    2660.02  36.09    2758.51  36.09    2856.95 
GR 32.81    2955.44  39.37    3054.1   39.37    3152.53  45.93    3251.19  49.22    3349.68 
GR 49.22    3448.12  49.22    3546.55  49.22    3644.99  49.22    3743.42  49.22    3841.86 
GR 49.22    3940.3   52.5     4038.79  52.5     4137.23  52.5     4235.66  52.5     4334.1  
GR 55.78    4432.59  55.78    4531.03  59.06    4629.52  62.34    4728.01  62.34    4826.45 
GR 65.62    4924.94  65.62    5023.37  65.62    5121.81  68.9     5220.3   72.18    5318.79 
GR 72.18    5417.23  75.46    5515.72  78.74    5614.21  82.03    5712.7   82.03    5811.14 
GR 82.03    5909.57  82.03    6008.01  82.03    6106.45  82.03    6204.88  82.03    6303.32 
GR 82.03    6401.76  85.31    6500.25  85.31    6598.69  88.59    6697.18  91.87    6795.67 
GR 95.15    6894.16  98.43    6992.65  98.43    7053.6  
;
NC 0.2      0.2      0.05    
X1 55                73       31       36       0.0      0.0      0.0      0        0       
GR 62.34    0        62.34    98.44    59.06    196.93   59.06    295.36   52.5     394.02  
GR 52.5     492.46   52.5     590.89   49.22    689.38   49.22    787.82   49.22    886.26  
GR 49.22    984.69   45.93    1083.18  45.93    1181.62  45.93    1280.06  42.65    1378.55 
GR 42.65    1476.98  42.65    1575.42  39.37    1673.91  39.37    1772.35  39.37    1870.79 
GR 39.37    1969.22  36.09    2067.71  32.81    2166.2   45.93    2265.51  29.53    2365.31 
GR 26.25    2463.8   52.5     2565.67  55.78    2664.16  49.22    2762.82  49.22    2861.26 
GR 36.09    2960.56  32.81    3059.05  22.97    3157.98  29.53    3256.64  6.56     3357.72 
GR 6.56     3456.15  36.09    3558.92  45.93    3657.85  49.22    3756.34  45.93    3854.83 
GR 49.22    3953.33  49.22    4051.76  49.22    4150.2   49.22    4248.63  52.5     4347.13 
GR 52.5     4445.56  52.5     4544     49.22    4642.49  49.22    4740.93  49.22    4839.36 
GR 49.22    4937.8   49.22    5036.24  49.22    5134.67  49.22    5233.11  49.22    5331.55 
GR 49.22    5429.98  49.22    5528.42  52.5     5626.91  52.5     5725.35  52.5     5823.78 
GR 55.78    5922.27  55.78    6020.71  59.06    6119.2   59.06    6217.64  59.06    6316.07 
GR 59.06    6414.51  62.34    6513     62.34    6611.44  65.62    6709.93  65.62    6808.37 
GR 65.62    6906.8   65.62    7005.24  65.62    7018.77 
;
NC 0.2      0.2      0.05    
X1 54                47       12       17       0.0      0.0      0.0      0        0       
GR 65.62    0        65.62    98.44    65.62    196.87   65.62    295.31   65.62    393.75  
GR 65.62    492.18   65.62    590.62   65.62    689.06   62.34    787.55   59.06    886.04  
GR 55.78    984.53   49.22    1083.18  45.93    1181.68  42.65    1280.17  36.09    1378.82 
GR 32.81    1477.31  36.09    1575.8   42.65    1674.46  42.65    1772.9   42.65    1871.33 
GR 45.93    1969.82  45.93    2068.26  45.93    2166.7   49.22    2265.19  49.22    2363.62 
GR 49.22    2462.06  49.22    2560.5   52.5     2658.99  52.5     2757.42  52.5     2855.86 
GR 52.5     2954.3   55.78    3052.79  55.78    3151.23  59.06    3249.72  59.06    3348.15 
GR 59.06    3446.59  59.06    3545.03  62.34    3643.52  62.34    3741.95  62.34    3840.39 
GR 62.34    3938.83  62.34    4037.26  65.62    4135.75  65.62    4234.19  65.62    4332.63 
GR 65.62    4431.06  65.62    4449.25 
;
NC 0.2      0.2      0.05    
X1 45                62       25       30       0.0      0.0      0.0      0        0       
GR 219.83   0        219.83   98.44    216.55   196.93   216.55   295.36   216.55   393.8   
GR 213.26   492.29   213.26   590.73   213.26   689.16   213.26   787.6    213.26   886.04  
GR 213.26   984.47   213.26   1082.91  213.26   1181.35  213.26   1279.78  216.55   1378.28 
GR 213.26   1476.77  213.26   1575.2   216.55   1673.69  213.26   1772.19  213.26   1870.62 
GR 213.26   1969.06  213.26   2067.49  213.26   2165.93  209.98   2264.42  206.7    2362.91 
GR 203.42   2461.4   203.42   2559.84  200.14   2658.33  200.14   2685.66  200.14   2855.21 
GR 196.86   2953.7   196.86   3052.13  200.14   3150.62  203.42   3249.12  203.42   3347.55 
GR 206.7    3446.04  209.98   3544.53  209.98   3642.97  213.26   3741.46  213.26   3839.9  
GR 213.26   3938.34  213.26   4036.77  213.26   4135.21  213.26   4233.64  213.26   4332.08 
GR 216.55   4430.57  219.83   4529.06  219.83   4607.08  219.83   4725.94  219.83   4824.37 
GR 219.83   4922.81  216.55   5021.3   216.55   5119.74  213.26   5218.23  219.83   5316.88 
GR 226.39   5415.54  229.67   5514.03  229.67   5612.47  232.95   5710.96  236.23   5809.45 
GR 236.23   5907.89  236.23   5925.23 
;
NC 0.2      0.2      0.05    
X1 42                50       23       28       0.0      0.0      0.0      0        0       
GR 160.77   0        160.77   98.44    157.49   196.93   157.49   295.36   157.49   393.8   
GR 157.49   492.24   157.49   590.67   157.49   689.11   157.49   787.55   157.49   885.98  
GR 157.49   984.42   150.93   1083.07  150.93   1181.51  150.93   1279.95  150.93   1378.38 
GR 150.93   1476.82  150.93   1575.26  147.65   1673.75  150.93   1772.24  154.21   1870.73 
GR 157.49   1969.22  150.93   2067.88  144.36   2166.53  137.8    2265.19  131.24   2363.84 
GR 131.24   2462.28  131.24   2560.72  131.24   2659.15  131.24   2757.59  131.24   2856.02 
GR 131.24   2954.46  137.8    3053.12  137.8    3151.55  141.08   3250.04  144.36   3348.54 
GR 147.65   3447.03  147.65   3545.46  150.93   3643.95  150.93   3742.39  154.21   3840.88 
GR 154.21   3939.32  154.21   4037.75  154.21   4136.19  154.21   4234.63  157.49   4333.12 
GR 157.49   4431.56  157.49   4529.99  157.49   4628.43  160.77   4726.92  160.77   4788.13 
;
NC 0.2      0.2      0.05    
X1 29                45       24       29       0.0      0.0      0.0      0        0       
GR 68.9     0        68.9     98.44    65.62    196.93   65.62    295.36   65.62    393.8   
GR 65.62    492.24   62.34    590.73   62.34    689.16   62.34    787.6    62.34    886.04  
GR 62.34    984.47   59.06    1082.97  62.34    1181.46  62.34    1279.89  62.34    1378.33 
GR 62.34    1476.77  62.34    1575.2   65.62    1673.69  65.62    1772.13  65.62    1870.57 
GR 65.62    1969     65.62    2067.44  65.62    2165.88  68.9     2264.37  65.62    2362.86 
GR 65.62    2461.3   59.06    2559.95  49.22    2658.88  45.93    2757.37  45.93    2855.81 
GR 49.22    2954.3   52.5     3052.79  55.78    3151.28  62.34    3249.93  65.62    3348.43 
GR 65.62    3446.86  65.62    3545.3   65.62    3643.74  65.62    3742.17  65.62    3840.61 
GR 65.62    3939.04  65.62    4037.48  65.62    4135.92  65.62    4234.35  65.62    4261.6  
;
NC 0.2      0.2      0.05    
X1 30                61       36       41       0.0      0.0      0.0      0        0       
GR 98.43    0        98.43    98.44    95.15    196.93   95.15    295.36   95.15    393.8   
GR 95.15    492.24   95.15    590.67   91.87    689.16   91.87    787.6    91.87    886.04  
GR 88.59    984.53   88.59    1082.97  88.59    1181.4   88.59    1279.84  88.59    1378.28 
GR 88.59    1476.71  85.31    1575.2   85.31    1673.64  85.31    1772.08  85.31    1870.51 
GR 85.31    1968.95  85.31    2067.39  85.31    2165.82  82.03    2264.31  82.03    2362.75 
GR 82.03    2461.19  82.03    2559.62  82.03    2658.06  82.03    2756.5   82.03    2854.93 
GR 82.03    2953.37  82.03    3051.81  78.74    3150.3   78.74    3248.73  78.74    3347.17 
GR 78.74    3445.61  78.74    3544.04  78.74    3642.48  75.46    3740.97  78.74    3839.46 
GR 78.74    3937.9   78.74    4036.33  78.74    4134.77  78.74    4233.21  78.74    4331.64 
GR 78.74    4430.08  78.74    4528.52  78.74    4626.95  82.03    4725.44  82.03    4823.88 
GR 85.31    4922.37  88.59    5020.86  91.87    5119.35  91.87    5217.79  95.15    5316.28 
GR 95.15    5414.72  98.43    5513.21  98.43    5611.65  101.71   5710.14  101.71   5808.57 
GR 101.71   5837.36 
;
NC 0.2      0.2      0.05    
X1 28                69       28       33       0.0      0.0      0.0      0        0       
GR 82.03    0        78.74    98.49    78.74    196.93   78.74    295.36   78.74    393.8   
GR 75.46    492.29   75.46    590.73   75.46    689.16   75.46    787.6    72.18    886.09  
GR 72.18    984.53   72.18    1082.97  72.18    1181.4   72.18    1279.84  72.18    1378.28 
GR 72.18    1476.71  72.18    1575.15  68.9     1673.64  68.9     1772.08  68.9     1870.51 
GR 68.9     1968.95  68.9     2067.39  65.62    2165.88  65.62    2264.31  55.78    2363.24 
GR 52.5     2461.73  49.22    2560.22  45.93    2658.71  49.22    2757.21  49.22    2855.64 
GR 49.22    2954.08  52.5     3052.57  52.5     3151.01  52.5     3249.44  59.06    3348.1  
GR 59.06    3446.53  62.34    3545.03  62.34    3643.46  65.62    3741.95  65.62    3840.39 
GR 65.62    3938.83  65.62    4037.26  65.62    4135.7   65.62    4234.14  65.62    4332.57 
GR 68.9     4431.06  68.9     4529.5   68.9     4627.94  72.18    4726.43  72.18    4824.86 
GR 72.18    4923.3   72.18    5021.74  72.18    5120.17  72.18    5218.61  72.18    5317.05 
GR 75.46    5415.54  75.46    5513.97  75.46    5612.41  75.46    5710.85  75.46    5809.28 
GR 75.46    5907.72  75.46    6006.16  75.46    6104.59  75.46    6203.03  75.46    6301.47 
GR 78.74    6399.96  78.74    6498.39  78.74    6596.83  78.74    6642.21 
;
NC 0.2      0.2      0.05    