[TITLE]
;;Project Title/Notes
Existing System Conditions
DWF updated at Racks 16 and 17 to represent flow monitoring data

[OPTIONS]
;;Option             Value
FLOW_UNITS           CFS
INFILTRATION         HORTON
FLOW_ROUTING         KINWAVE
LINK_OFFSETS         DEPTH
MIN_SLOPE            0
ALLOW_PONDING        YES
SKIP_STEADY_STATE    NO

START_DATE           12/13/2018
START_TIME           00:00:00
REPORT_START_DATE    12/13/2018
REPORT_START_TIME    00:00:00
END_DATE             12/13/2018
END_TIME             00:00:00
SWEEP_START          1/1
SWEEP_END            12/31
DRY_DAYS             0
REPORT_STEP          00:15:00
WET_STEP             00:05:00
DRY_STEP             01:00:00
ROUTING_STEP         0:00:30 

INERTIAL_DAMPING     PARTIAL
NORMAL_FLOW_LIMITED  BOTH
FORCE_MAIN_EQUATION  H-W
VARIABLE_STEP        0.75
LENGTHENING_STEP     0
MIN_SURFAREA         0
MAX_TRIALS           0
HEAD_TOLERANCE       0
SYS_FLOW_TOL         5
LAT_FLOW_TOL         5
MINIMUM_STEP         0.5
THREADS              1

[EVAPORATION]
;;Data Source    Parameters
;;-------------- ----------------
CONSTANT         0.0
DRY_ONLY         NO

[RAINGAGES]
;;Name           Format    Interval SCF      Source    
;;-------------- --------- ------ ------ ----------
1                INTENSITY 1:00     1.0      TIMESERIES BalancedStorm   

[SUBCATCHMENTS]
;;Name           Rain Gage        Outlet           Area     %Imperv  Width    %Slope   CurbLen  SnowPack        
;;-------------- ---------------- ---------------- -------- -------- -------- -------- -------- ----------------
; Name Raingage Outlet Area %Imperv Width Slope Clength
10               1                10               201.000310 26.400000 6160.000000 1.800000 0.000000                 
1020-31          1                1020-31          76.600118 41.600000 233.300000 3.000000 0.000000                 
1021-08A         1                1021-08A         385.000594 29.600000 600.000000 1.500000 0.000000                 
1021-08B         1                1021-08B         85.930133 30.400000 300.000000 3.600000 0.000000                 
1021-08C         1                1021-08C         56.090087 30.400000 300.000000 3.600000 0.000000                 
1021-08D         1                1021-08D         37.650058 36.800000 166.700000 0.500000 0.000000                 
1074_15          1                1074_15          72.770112 64.000000 1400.000000 0.300000 0.000000                 
1074_19          1                303416           151.510234 58.400000 1500.000000 2.400000 0.000000                 
11               1                11               381.000588 24.800000 15080.000000 1.800000 0.000000                 
1172-21          1                1172-21          245.000378 28.000000 333.300000 2.200000 0.000000                 
1172-22A         1                1172-22A         48.210074 59.200000 233.300000 0.800000 0.000000                 
1172-22B         1                1172-22B         155.000239 40.000000 500.000000 0.900000 0.000000                 
1172-22C         1                1172-22C         110.000170 26.400000 500.000000 3.100000 0.000000                 
1172-22D         1                1172-22D         21.120033 20.000000 200.000000 3.500000 0.000000                 
1172-22E         1                1172-22E         28.920045 48.800000 266.700000 3.800000 0.000000                 
1172-22F         1                1172-22F         129.000199 32.800000 400.000000 0.800000 0.000000                 
1174-32A         1                1174-32A         65.000100 7.000000 17.000000 0.000000 0.000000                 
1174-32C         1                1174-32C         35.580055 60.800000 500.000000 0.200000 0.000000                 
1175_06          1                303465           33.290051 55.200000 800.000000 2.200000 0.000000                 
1175_07          1                303645           111.340172 60.000000 1300.000000 0.600000 0.000000                 
12               1                12               952.001470 28.000000 29216.000000 8.000000 0.000000                 
1224-19A         1                1224-19A         140.000216 29.600000 466.700000 0.500000 0.000000                 
1224-19B         1                1224-19B         109.000168 37.600000 266.700000 0.600000 0.000000                 
1225-15          1                303677           145.320224 48.800000 800.000000 1.900000 0.000000                 
13               1                13               65.000100 7.000000 17.000000 0.000000 0.000000                 
14               1                14               240.000370 28.000000 9480.000000 1.800000 0.000000                 
1433             1                1433             3.955006 7.000000 5.000000 0.000000 0.000000                 
15               1                740742           232.000358 26.400000 9720.000000 1.800000 0.000000                 
2                1                2                525.000810 24.800000 14960.000000 1.800000 0.000000                 
21               1                21               41.600064 7.000000 12.000000 0.000000 0.000000                 
2101             1                2101             174.000269 7.000000 28.000000 0.000000 0.000000                 
22               1                22               436.000673 28.800000 14880.000000 1.800000 0.000000                 
23               1                281231           38.748159 23.200000 9120.000000 5.109019 0.000000                 
24-1             1                303337           9.522170 28.000000 2623.458263 4.000000 0.000000                 
24-2             1                303344           25.220994 28.000000 4269.601016 4.000000 0.000000                 
24-3             1                299390           37.491008 28.000000 5205.587540 4.000000 0.000000                 
24-4             1                731845           32.952149 28.000000 4880.317373 4.000000 0.000000                 
24-5             1                299375           10.315385 28.000000 2730.542296 4.000000 0.000000                 
24-6             1                299185           150.886242 28.000000 10443.138007 4.000000 0.000000                 
24-7             1                299203           35.037108 28.000000 5032.343990 4.000000 0.000000                 
24-8             1                299198           57.606841 28.000000 6452.726045 4.000000 0.000000                 
25               1                25               58.000090 7.000000 16.000000 0.000000 0.000000                 
26               1                26               160.000247 20.000000 12475.000000 2.000000 0.000000                 
27               1                27               97.000150 22.400000 8600.000000 1.800000 0.000000                 
28               1                28               304.000469 20.000000 11080.000000 1.800000 0.000000                 
29               1                29               138.000213 24.000000 7840.000000 2.000000 0.000000                 
290791           1                290791           146.000225 10.000000 100.000000 0.000000 0.000000                 
3                1                3                342.000528 25.600000 19375.000000 2.000000 0.000000                 
30               1                30               491.000758 7.000000 46.000000 0.000000 0.000000                 
302106           1                302106           260.508402 16.400000 1900.552482 2.042054 0.000000                 
302207           1                35               56.863088 16.400000 887.941223 3.000000 0.000000                 
303269           1                303269           61.474338 45.000000 923.242798 1.900000 0.000000                 
303341           1                303341           17.997154 45.000000 499.540747 1.900000 0.000000                 
303478           1                303478           23.797494 80.000000 574.426688 7.402896 0.000000                 
303598           1                281220           54.665688 29.600000 870.615528 8.971462 0.000000                 
303984           1                303969           62.591097 29.600000 931.590990 0.904037 0.000000                 
31               1                31               309.000477 23.200000 14240.000000 1.800000 0.000000                 
33               1                33               48.000074 24.800000 4840.000000 2.000000 0.000000                 
34               1                34               83.000128 24.800000 4800.000000 2.000000 0.000000                 
36               1                36               189.000292 24.000000 10480.000000 1.800000 0.000000                 
38_MH1           1                38-MH1           1470.002269 7.000000 546.000000 0.000000 0.000000                 
491              1                491              84.000130 7.000000 19.000000 0.000000 0.000000                 
5                1                5                95.000147 28.800000 5120.000000 1.800000 0.000000                 
522127           1                35               90.432140 16.400000 1119.774059 3.000000 0.000000                 
522164           1                522164           55.906086 29.600000 880.437525 40.492958 0.000000                 
522365           1                522365           495.559765 16.400000 2621.301756 0.982577 0.000000                 
522388           1                303973           92.100142 29.600000 1130.053877 8.000000 0.000000                 
6                1                6                28.000043 24.000000 2560.000000 1.800000 0.000000                 
687              1                687              743.001147 7.000000 57.000000 0.000000 0.000000                 
7                1                7                112.000173 29.600000 7360.000000 1.800000 0.000000                 
8                1                8                78.000120 7.000000 18.000000 0.000000 0.000000                 
874-13           1                874-13           229.570354 34.400000 850.000000 2.200000 0.000000                 
9                1                9                39.000060 7.000000 13.000000 0.000000 0.000000                 
926-19A          1                926-19A          275.000425 34.400000 1650.000000 0.200000 0.000000                 
926-19B          1                926-19B          442.300683 26.400000 1700.000000 1.400000 0.000000                 
974-19A          1                974-19A          14.000022 64.000000 800.000000 3.300000 0.000000                 
974-19B          1                974-19B          56.240087 58.400000 500.000000 2.300000 0.000000                 
974-19C          1                974-19C          80.810125 24.800000 900.000000 0.600000 0.000000                 
974-19D          1                974-19D          78.360121 21.600000 900.000000 1.300000 0.000000                 
974-19E          1                974-19E          82.340127 38.400000 950.000000 0.800000 0.000000                 
974-19Faaa       1                974-19Faaa       166.670257 34.400000 550.000000 0.800000 0.000000                 
Babb             1                Babb             446.000689 7.000000 44.000000 0.000000 0.000000                 
CBI              1                CBI              4821.007442 7.000000 580.000000 0.000000 0.000000                 
COMB84MH6        1                COMB84MH6        7755.011972 7.000000 398.700000 0.000000 0.000000                 
EASTWOOD         1                EASTWOOD         110.000170 7.000000 22.000000 0.000000 0.000000                 
Hawkins          1                HAWKINS          3179.004908 7.000000 767.000000 0.000000 0.000000                 
LAKEMORE         1                LAKEMORE         511.000789 7.000000 47.000000 0.000000 0.000000                 
Main             1                Main             2730.004214 7.000000 709.000000 0.000000 0.000000                 
ROOSEVELT        1                ROOSEVELT        142.000219 7.000000 25.000000 0.000000 0.000000                 
SNDRN2           1                SNDRN            0.000000 0.000000 1.000000 0.863636 0.000000                 
SPRNGFLD         1                SPRNGFLD         401.000619 7.000000 42.000000 0.000000 0.000000                 
SRTI             1                SRTI             271.000418 7.000000 34.000000 0.000000 0.000000                 
T1               1                T1               4007.006186 7.000000 528.000000 0.000000 0.000000                 
T2               1                T2               4782.007382 7.000000 576.000000 0.000000 0.000000                 
TALLMDGE         1                TALLMDGE         582.000898 7.000000 50.000000 0.000000 0.000000                 
WL_MH2           1                WL_MH2           582.000898 7.000000 108.300000 0.000000 0.000000                 
WLR_MH2          1                WLR_MH2          3554.005486 7.000000 268.700000 0.000000 0.000000                 
WRT_MH1          1                303473           2585.003991 7.000000 229.700000 0.000000 0.000000                 
WRT_MH1_Runoff   1                303470           45.219718 20.000000 791.831769 0.837023 0.000000                 

[SUBAREAS]
;;Subcatchment   N-Imperv   N-Perv     S-Imperv   S-Perv     PctZero    RouteTo    PctRouted 
;;-------------- ---------- ---------- ---------- ---------- ---------- ---------- ----------
10               0.015000   0.130000   0.150000   0.150000   0.000000   OUTLET    
1020-31          0.015000   0.130000   0.150000   0.150000   0.000000   OUTLET    
1021-08A         0.015000   0.130000   0.150000   0.150000   0.000000   OUTLET    
1021-08B         0.015000   0.130000   0.150000   0.150000   0.000000   OUTLET    
1021-08C         0.015000   0.130000   0.150000   0.150000   0.000000   OUTLET    
1021-08D         0.015000   0.130000   0.150000   0.150000   0.000000   OUTLET    
1074_15          0.015000   0.130000   0.150000   0.150000   0.000000   OUTLET    
1074_19          0.015000   0.130000   0.150000   0.150000   0.000000   OUTLET    
11               0.015000   0.130000   0.150000   0.150000   0.000000   OUTLET    
1172-21          0.015000   0.130000   0.150000   0.150000   0.000000   OUTLET    
1172-22A         0.015000   0.130000   0.150000   0.150000   0.000000   OUTLET    
1172-22B         0.015000   0.130000   0.150000   0.150000   0.000000   OUTLET    
1172-22C         0.015000   0.130000   0.150000   0.150000   0.000000   OUTLET    
1172-22D         0.015000   0.130000   0.150000   0.150000   0.000000   OUTLET    
1172-22E         0.015000   0.130000   0.150000   0.150000   0.000000   OUTLET    
1172-22F         0.015000   0.130000   0.150000   0.150000   0.000000   OUTLET    
1174-32A         0.013000   0.013000   0.000000   0.500400   100.000000 OUTLET    
1174-32C         0.015000   0.130000   0.150000   0.150000   0.000000   OUTLET    
1175_06          0.015000   0.130000   0.150000   0.150000   0.000000   OUTLET    
1175_07          0.015000   0.130000   0.150000   0.150000   0.000000   OUTLET    
12               0.015000   0.130000   0.150000   0.150000   0.000000   OUTLET    
1224-19A         0.015000   0.130000   0.150000   0.150000   0.000000   OUTLET    
1224-19B         0.015000   0.130000   0.150000   0.150000   0.000000   OUTLET    
1225-15          0.015000   0.130000   0.150000   0.150000   0.000000   OUTLET    
13               0.013000   0.013000   0.000000   0.500400   100.000000 OUTLET    
14               0.015000   0.130000   0.150000   0.150000   0.000000   OUTLET    
1433             0.013000   0.013000   0.000000   0.500400   100.000000 OUTLET    
15               0.015000   0.130000   0.150000   0.150000   0.000000   OUTLET    
2                0.015000   0.130000   0.150000   0.150000   0.000000   OUTLET    
21               0.013000   0.013000   0.000000   0.500400   100.000000 OUTLET    
2101             0.013000   0.013000   0.000000   0.500400   100.000000 OUTLET    
22               0.015000   0.130000   0.150000   0.150000   0.000000   OUTLET    
23               0.015000   0.130000   0.150000   0.150000   0.000000   OUTLET    
24-1             0.015000   0.130000   0.150000   0.150000   0.000000   OUTLET    
24-2             0.015000   0.130000   0.150000   0.150000   0.000000   OUTLET    
24-3             0.015000   0.130000   0.150000   0.150000   0.000000   OUTLET    
24-4             0.015000   0.130000   0.150000   0.150000   0.000000   OUTLET    
24-5             0.015000   0.130000   0.150000   0.150000   0.000000   OUTLET    
24-6             0.015000   0.130000   0.150000   0.150000   0.000000   OUTLET    
24-7             0.015000   0.130000   0.150000   0.150000   0.000000   OUTLET    
24-8             0.015000   0.130000   0.150000   0.150000   0.000000   OUTLET    
25               0.013000   0.013000   0.000000   0.500400   100.000000 OUTLET    
26               0.015000   0.130000   0.150000   0.150000   0.000000   OUTLET    
27               0.015000   0.130000   0.150000   0.150000   0.000000   OUTLET    
28               0.015000   0.130000   0.150000   0.150000   0.000000   OUTLET    
29               0.015000   0.130000   0.150000   0.150000   0.000000   OUTLET    
290791           0.013000   0.013000   0.000000   0.500400   100.000000 OUTLET    
3                0.015000   0.130000   0.150000   0.150000   0.000000   OUTLET    
30               0.013000   0.013000   0.000000   0.500400   100.000000 OUTLET    
302106           0.015000   0.130000   0.150000   0.150000   0.000000   OUTLET    
302207           0.015000   0.130000   0.150000   0.150000   0.000000   OUTLET    
303269           0.015000   0.130000   0.150000   0.150000   0.000000   OUTLET    
303341           0.015000   0.130000   0.150000   0.150000   0.000000   OUTLET    
303478           0.015000   0.130000   0.150000   0.150000   0.000000   OUTLET    
303598           0.015000   0.130000   0.150000   0.150000   0.000000   OUTLET    
303984           0.015000   0.130000   0.150000   0.150000   0.000000   OUTLET    
31               0.015000   0.130000   0.150000   0.150000   0.000000   OUTLET    
33               0.015000   0.130000   0.150000   0.150000   0.000000   OUTLET    
34               0.015000   0.130000   0.150000   0.150000   0.000000   OUTLET    
36               0.015000   0.130000   0.150000   0.150000   0.000000   OUTLET    
38_MH1           0.013000   0.013000   0.000000   0.500400   100.000000 OUTLET    
491              0.013000   0.013000   0.000000   0.500400   100.000000 OUTLET    
5                0.015000   0.130000   0.150000   0.150000   0.000000   OUTLET    
522127           0.015000   0.130000   0.150000   0.150000   0.000000   OUTLET    
522164           0.015000   0.130000   0.150000   0.150000   0.000000   OUTLET    
522365           0.015000   0.130000   0.150000   0.150000   0.000000   OUTLET    
522388           0.015000   0.130000   0.150000   0.150000   0.000000   OUTLET    
6                0.015000   0.130000   0.150000   0.150000   0.000000   OUTLET    
687              0.013000   0.013000   0.000000   0.500400   100.000000 OUTLET    
7                0.015000   0.130000   0.150000   0.150000   0.000000   OUTLET    
8                0.013000   0.013000   0.000000   0.500400   100.000000 OUTLET    
874-13           0.015000   0.130000   0.150000   0.150000   0.000000   OUTLET    
9                0.013000   0.013000   0.000000   0.500400   100.000000 OUTLET    
926-19A          0.015000   0.130000   0.150000   0.150000   0.000000   OUTLET    
926-19B          0.015000   0.130000   0.150000   0.150000   0.000000   OUTLET    
974-19A          0.015000   0.130000   0.150000   0.150000   0.000000   OUTLET    
974-19B          0.015000   0.130000   0.150000   0.150000   0.000000   OUTLET    
974-19C          0.015000   0.130000   0.150000   0.150000   0.000000   OUTLET    
974-19D          0.015000   0.130000   0.150000   0.150000   0.000000   OUTLET    
974-19E          0.015000   0.130000   0.150000   0.150000   0.000000   OUTLET    
974-19Faaa       0.015000   0.130000   0.150000   0.150000   0.000000   OUTLET    
Babb             0.013000   0.013000   0.000000   0.500400   100.000000 OUTLET    
CBI              0.013000   0.013000   0.000000   0.500400   100.000000 OUTLET    
COMB84MH6        0.013000   0.013000   0.000000   0.500400   100.000000 OUTLET    
EASTWOOD         0.013000   0.013000   0.000000   0.500400   100.000000 OUTLET    
Hawkins          0.013000   0.013000   0.000000   0.500400   100.000000 OUTLET    
LAKEMORE         0.013000   0.013000   0.000000   0.500400   100.000000 OUTLET    
Main             0.013000   0.013000   0.000000   0.500400   100.000000 OUTLET    
ROOSEVELT        0.013000   0.013000   0.000000   0.500400   100.000000 OUTLET    
SNDRN2           0.015000   0.130000   0.150000   0.150000   0.000000   OUTLET    
SPRNGFLD         0.013000   0.013000   0.000000   0.500400   100.000000 OUTLET    
SRTI             0.013000   0.013000   0.000000   0.500400   100.000000 OUTLET    
T1               0.013000   0.013000   0.000000   0.500400   100.000000 OUTLET    
T2               0.013000   0.013000   0.000000   0.500400   100.000000 OUTLET    
TALLMDGE         0.013000   0.013000   0.000000   0.500400   100.000000 OUTLET    
WL_MH2           0.013000   0.013000   0.000000   0.500400   100.000000 OUTLET    
WLR_MH2          0.013000   0.013000   0.000000   0.500400   100.000000 OUTLET    
WRT_MH1          0.013000   0.013000   0.000000   0.500400   100.000000 OUTLET    
WRT_MH1_Runoff   0.015000   0.130000   0.150000   0.150000   0.000000   OUTLET    

[INFILTRATION]
;;Subcatchment   MaxRate    MinRate    Decay      DryTime    MaxInfil  
;;-------------- ---------- ---------- ---------- ---------- ----------
10               2.000000   0.630000   3.600000   4.075024   0.000000  
1020-31          2.000000   0.630000   3.600000   4.075024   0.000000  
1021-08A         2.000000   0.630000   3.600000   4.075024   0.000000  
1021-08B         2.000000   0.630000   3.600000   4.075024   0.000000  
1021-08C         2.000000   0.630000   3.600000   4.075024   0.000000  
1021-08D         2.000000   0.630000   3.600000   4.075024   0.000000  
1074_15          2.000000   0.630000   3.600000   4.075024   0.000000  
1074_19          2.000000   0.630000   3.600000   4.075024   0.000000  
11               2.000000   0.630000   3.600000   4.075024   0.000000  
1172-21          2.000000   0.630000   3.600000   4.075024   0.000000  
1172-22A         2.000000   0.630000   3.600000   4.075024   0.000000  
1172-22B         2.000000   0.630000   3.600000   4.075024   0.000000  
1172-22C         2.000000   0.630000   3.600000   4.075024   0.000000  
1172-22D         2.000000   0.630000   3.600000   4.075024   0.000000  
1172-22E         2.000000   0.630000   3.600000   4.075024   0.000000  
1172-22F         2.000000   0.630000   3.600000   4.075024   0.000000  
1174-32A         1.200000   0.010000   3.600000   4.075024   0.000000  
1174-32C         2.000000   0.630000   3.600000   4.075024   0.000000  
1175_06          2.000000   0.630000   3.600000   4.075024   0.000000  
1175_07          2.000000   0.630000   3.600000   4.075024   0.000000  
12               2.000000   0.630000   3.600000   4.075024   0.000000  
1224-19A         2.000000   0.630000   3.600000   4.075024   0.000000  
1224-19B         2.000000   0.630000   3.600000   4.075024   0.000000  
1225-15          2.000000   0.630000   3.600000   4.075024   0.000000  
13               1.200000   0.010000   3.600000   4.075024   0.000000  
14               2.000000   0.630000   3.600000   4.075024   0.000000  
1433             1.200000   0.010000   3.600000   4.075024   0.000000  
15               2.000000   0.630000   3.600000   4.075024   0.000000  
2                2.000000   0.630000   3.600000   4.075024   0.000000  
21               1.200000   0.010000   3.600000   4.075024   0.000000  
2101             1.200000   0.010000   3.600000   4.075024   0.000000  
22               2.000000   0.630000   3.600000   4.075024   0.000000  
23               2.000000   0.630000   3.600000   4.075024   0.000000  
24-1             2.000000   0.630000   3.600000   4.075024   0.000000  
24-2             2.000000   0.630000   3.600000   4.075024   0.000000  
24-3             2.000000   0.630000   3.600000   4.075024   0.000000  
24-4             2.000000   0.630000   3.600000   4.075024   0.000000  
24-5             2.000000   0.630000   3.600000   4.075024   0.000000  
24-6             2.000000   0.630000   3.600000   4.075024   0.000000  
24-7             2.000000   0.630000   3.600000   4.075024   0.000000  
24-8             2.000000   0.630000   3.600000   4.075024   0.000000  
25               1.200000   0.010000   3.600000   4.075024   0.000000  
26               2.000000   0.630000   3.600000   4.075024   0.000000  
27               2.000000   0.630000   3.600000   4.075024   0.000000  
28               2.000000   0.630000   3.600000   4.075024   0.000000  
29               2.000000   0.630000   3.600000   4.075024   0.000000  
290791           1.200000   0.010000   3.600000   4.075024   0.000000  
3                2.000000   0.630000   3.600000   4.075024   0.000000  
30               1.200000   0.010000   3.600000   4.075024   0.000000  
302106           2.000000   0.630000   3.600000   4.075024   0.000000  
302207           2.000000   0.630000   3.600000   4.075024   0.000000  
303269           2.000000   0.630000   3.600000   4.075024   0.000000  
303341           2.000000   0.630000   3.600000   4.075024   0.000000  
303478           2.000000   0.630000   3.600000   4.075024   0.000000  
303598           2.000000   0.630000   3.600000   4.075024   0.000000  
303984           2.000000   0.630000   3.600000   4.075024   0.000000  
31               2.000000   0.630000   3.600000   4.075024   0.000000  
33               2.000000   0.630000   3.600000   4.075024   0.000000  
34               2.000000   0.630000   3.600000   4.075024   0.000000  
36               2.000000   0.630000   3.600000   4.075024   0.000000  
38_MH1           1.200000   0.010000   3.600000   4.075024   0.000000  
491              1.200000   0.010000   3.600000   4.075024   0.000000  
5                2.000000   0.630000   3.600000   4.075024   0.000000  
522127           2.000000   0.630000   3.600000   4.075024   0.000000  
522164           2.000000   0.630000   3.600000   4.075024   0.000000  
522365           2.000000   0.630000   3.600000   4.075024   0.000000  
522388           2.000000   0.630000   3.600000   4.075024   0.000000  
6                2.000000   0.630000   3.600000   4.075024   0.000000  
687              1.200000   0.010000   3.600000   4.075024   0.000000  
7                2.000000   0.630000   3.600000   4.075024   0.000000  
8                1.200000   0.010000   3.600000   4.075024   0.000000  
874-13           2.000000   0.630000   3.600000   4.075024   0.000000  
9                1.200000   0.010000   3.600000   4.075024   0.000000  
926-19A          2.000000   0.630000   3.600000   4.075024   0.000000  
926-19B          2.000000   0.630000   3.600000   4.075024   0.000000  
974-19A          2.000000   0.630000   3.600000   4.075024   0.000000  
974-19B          2.000000   0.630000   3.600000   4.075024   0.000000  
974-19C          2.000000   0.630000   3.600000   4.075024   0.000000  
974-19D          2.000000   0.630000   3.600000   4.075024   0.000000  
974-19E          2.000000   0.630000   3.600000   4.075024   0.000000  
974-19Faaa       2.000000   0.630000   3.600000   4.075024   0.000000  
Babb             1.200000   0.010000   3.600000   4.075024   0.000000  
CBI              1.200000   0.010000   3.600000   4.075024   0.000000  
COMB84MH6        1.200000   0.010000   3.600000   4.075024   0.000000  
EASTWOOD         1.200000   0.010000   3.600000   4.075024   0.000000  
Hawkins          1.200000   0.010000   3.600000   4.075024   0.000000  
LAKEMORE         1.200000   0.010000   3.600000   4.075024   0.000000  
Main             1.200000   0.010000   3.600000   4.075024   0.000000  
ROOSEVELT        1.200000   0.010000   3.600000   4.075024   0.000000  
SNDRN2           2.000000   0.630000   3.600000   4.075024   0.000000  
SPRNGFLD         1.200000   0.010000   3.600000   4.075024   0.000000  
SRTI             1.200000   0.010000   3.600000   4.075024   0.000000  
T1               1.200000   0.010000   3.600000   4.075024   0.000000  
T2               1.200000   0.010000   3.600000   4.075024   0.000000  
TALLMDGE         1.200000   0.010000   3.600000   4.075024   0.000000  
WL_MH2           1.200000   0.010000   3.600000   4.075024   0.000000  
WLR_MH2          1.200000   0.010000   3.600000   4.075024   0.000000  
WRT_MH1          1.200000   0.010000   3.600000   4.075024   0.000000  
WRT_MH1_Runoff   2.000000   0.630000   3.600000   4.075024   0.000000  

[JUNCTIONS]
;;Name           Elevation  MaxDepth   InitDepth  SurDepth   Aponded   
;;-------------- ---------- ---------- ---------- ---------- ----------
; Name Elev ( Ymax Y0 Ysur Apond )
1                930.840023 19.159977  0.000000   0.000000   0.000000  
10               950.460000 11.990000  0.000000   0.000000   8755573.516354
10001            939.940000 15.060000  0.000000   0.000000   0.000000  
1020-31          949.440000 15.150000  0.000000   0.000000   3336701.151009
1021-08A         959.960000 13.380000  0.000000   0.000000   16770625.889534
1021-08B         946.910000 14.090000  0.000000   0.000000   3743116.578409
1021-08C         950.800000 26.480000  0.000000   0.000000   2443284.171802
1021-08D         952.730000 16.600000  0.000000   0.000000   1640036.531795
1074_15          946.660000 11.340000  0.000000   0.000000   3169866.093458
1074_19          944.800000 10.200000  0.000000   0.000000   0.000000  
11               941.600000 13.400000  0.000000   0.000000   16596385.620552