[TITLE]
 DERM C-8 100 YEAR STORM 4/24/96 117302.A5.F0 RUN_E10

[OPTIONS]
 FLOW_UNITS            CFS
 INFILTRATION          HORTON
 FLOW_ROUTING          DYNWAVE
 START_DATE            01/01/1995
 START_TIME            00:00:00
 REPORT_START_DATE     01/01/1995
 REPORT_START_TIME     00:00:00
 END_DATE              01/04/1995
 END_TIME              06:00:00
 REPORT_STEP           00:01:00
 WET_STEP              01:00:00
 DRY_STEP              24:00:00
 ROUTING_STEP          00:01:00
 MIN_SURFAREA          150.000
 ALLOW_PONDING         NO
 INERTIAL_DAMPING      PARTIAL
 VARIABLE_STEP         0.750000
 LENGTHENING_STEP      0.000000
 MIN_SURFAREA          0.000000
 NORMAL_FLOW_LIMITED   FROUDE
 SKIP_STEADY_STATE     NO
 IGNORE_RAINFALL       NO
 FORCE_MAIN_EQUATION   H-W
 LINK_OFFSETS          DEPTH
 COMPATIBILITY         5

[REPORT]
 INPUT YES
 CONTINUITY YES
 FLOWSTATS YES
 CONTROLS NO
 SUBCATCHMENTS ALL
 NODES ALL
 LINKS ALL

[RAINGAGES]
;;                 Rain      Recd.  Snow   Data       Source           Station    Rain  Start
;;Name             Type      Freq.  Catch  Source     Name             ID         Units Date
;;------------------------------------------------------------------------------------------------
  GAUGE1           CUMULATIVE 0.25000 1.0    TIMESERIES RN#1             
  GAUGE2           CUMULATIVE 0.25000 1.0    TIMESERIES RN#2             
  GAUGE3           CUMULATIVE 0.25000 1.0    TIMESERIES RN#3             
  GAUGE4           CUMULATIVE 0.25000 1.0    TIMESERIES RN#4             
  GAUGE5           CUMULATIVE 0.25000 1.0    TIMESERIES RN#5             
  GAUGE6           CUMULATIVE 0.25000 1.0    TIMESERIES RN#6             
  GAUGE7           CUMULATIVE 0.25000 1.0    TIMESERIES RN#7             

[JUNCTIONS]
;;                 Invert     Max.       Init.      Surcharge  Ponded
;;Name             Elev.      Depth      Depth      Depth      Area
;;------------------------------------------------------------------------
  N-C850-W         -1.65      13.65      3.75      
  N-C850-E         -2.61      15.22      4.71      
  N-C849-W         -7.4       20.01      9.5       
  N-C849-E         -10.6      22.6       12.7      
  N-C848-E         -11.7      23.7       13.8      
  N-C847-W         -11.7      23.7       13.8      
  N-C847-E         -11.7      23.7       13.8      
  N-C846-E         -8.3       20.3       10.4      
  N-C814-E         -11.1      23.1       13.2      
  N-C813-W         -11.1      23.1       13.2      
  N-C813-E         -11.1      23.1       13.2      
  N-GD-005         -9.5       21.5       11.6      
  N-LKDOON         -7.8       19.8       9.9       
  N-C811-W         -11.1      23.1       13.2      
  N-C811-E         -5         17         7.1       
  N-C844-S         -7.4       19.5       9.5       
  N-C844-N         -7.4       19.5       9.5       
  N-C842-S         -7.4       19.5       9.5       
  N-C842-N         -1.15      13.15      3.25      
  N-C843-N         -7.4       19.5       9.5       
  N-C843-S         -7.4       19.5       9.5       
  N-C807-N         -14.6      26.6       16.7      
  N-C807-S         -6         18         8.1       
  N-C808-N         -6         18         8.1       
  N-C808-S         -6         18         8.1       
  N-C809-N         -6         18         8.1       
  N-C809-S         -6         18         8.1       
  N-C810-N         -6         18         8.1       
  N-C810-S         -7         19         9.1       
  N-C815-W         -5         17         7.1       
  N-C815-E         -5         17         7.1       
  N-C816-E         -6         18.8       8.1       
  N-C816-W         -5         17         7.1       
  N-C824-W         -10.41     29.61      12.51     
  N-C824-E         -11.03     30.23      13.13     
  N-C819-E         -5         17         7.1       
  N-C819-W         -6.5       18.5       8.6       
  N-C818-E         -6.5       18.5       8.6       
  N-C818-W         -6         19         8.1       
  N-C817-E         -6         19         8.1       
  N-C817-W         -6         18.8       8.1       
  N-C8-045         -8.4       20.4       10.5      
  N-C820-W         -5         17         7.1       
  N-C820-E         -6         18         8.1       
  N-C821-W         -6         18         8.1       
  N-C821-E         -5         17         7.1       
  N-OL-015         -5.3       17.3       7.4       
  N-C823-W         -5.3       17.3       7.4       
  N-C823-E         -5.3       17.3       7.4       
  N-OL-010         -9         21         11.1      
  N-C8-040         -9.4       21.4       11.5      
  N-C8-035         -9.4       21.4       11.5      
  N-OL-005         -9         21         11.1      
  N-C832-S         -4.8       16.8       6.9       
  N-C833-N         -4.8       16.8       6.9       
  N-C833-S         -4.8       16.8       6.9       
  N-C831-W         -2.92      14.92      5.02      
  N-C830-N         -1.97      13.97      4.07      
  N-C829-W         -1.87      13.87      3.97      
  N-C828-W         -2.15      14.15      4.25      
  N-C827-W         -1.77      13.77      3.87      
  N-C8-030         -11.6      23.6       13.7      
  N-C8-025         -11.6      23.6       13.7      
  N-SP-050         -9.8       21.8       11.9      
  N-C8-020         -12        24         14.1      
  N-C8-015         -13        25         15.1      
  N-C8-010         -13        25.3       15.1      
  N-C845-N         -7.4       19.5       9.5       
  N-C845-S         -7.4       19.5       9.5       
  N-C8-060         -8.9       21         11        
  CN-LSCOTT        -10        22         0         
  CN-C833-N        -10        22         0         
  CN-C826-Wb       -10        22         0         
  CN-C831-W        -10        22         0         
  CN-C8-005        -10        22         0         
  CN-C8-010a       -10        22         0         
  CN-C8-020        -10        22         0         
  CN-C8-025a       -10        22         0         
  CN-C8-030a       -10        22         0         
  CN-C8-035a       -10        22         0         
  CN-OL-005b       -10        22         0         
  CN-OL-010a       -10        22         0         
  CN-C834-S        -10        22         0         
  CN-C8-045        0          0          0         
  CN-C8-040a       -10        22         0         
  CN-C8-050a       -10        22         0         
  N-C801-N         -3.35      15.35      5.45      
  N-C801-S         -3.28      15.28      5.38      
  N-C802-S         -5.5       17.5       7.6       
  N-C803-N         -5.5       17.5       7.6       
  N-C803-S         -7         19         9.1       
  N-C804-N         -7         19         9.1       
  N-C804-S         -6         18         8.1       
  N-C805-N         -6         18         8.1       
  N-C805-S         -6         18         8.1       
  N-C806-N         -6         18         8.1       
  N-C806-S         -5         17         7.1       
  CN-C802-Sa       -10        22         0         
  CN-C807-N        -10        22         0         
  CN-C809-S        -10        22         0         
  CN-C8-055a       -10        22         0         
  CN-LKNESSa       -10        22         0         
  CN-GD-005a       -10        22         0         
  CN-C846-Wa       -10        22         0         
  CN-C847-Wa       -10        22         0         
  CN-C849-W        -10        22         0         
  CN-C843-N        -10        22         0         
  CN-C844-N        -10        22         0         
  CN-C8-060a       -10        22         0         
  CN-C820-Wa       -10        22         0         
  CN-C817-W        -10        22         0         
  CN-C814-W        -10        22         0         
  CN-C8-010b       -10        22         0         
  CN-C8-030c       -10        22         0         
  CN-C8-030d       -10        22         0         
  CN-C8-030e       -10        22         0         
  CN-C8-035b       -10        22         0         
  CN-C8-035c       -10        22         0         
  CN-C8-040b       -10        22         0         
  CN-C8-045a       -10        22         0         
  CN-C8-045c       -10        22         0         
  CN-C8-045b       -10        22         0         
  CN-C8-050b       -10        22         0         
  CN-C8-055c       -10        22         0         
  CN-C8-055d       -10        22         0         
  CN-C8-060b       -10        22         0         
  CN-C8-060c       -10        22         0         
  CN-C8-060d       -10        22         0         
  CN-C814-E        -10        22         0         
  CN-C824-Wa       -10        22         0         
  CN-C824-Wb       -10        22         0         
  CN-C826-Wa       -10        22         0         
  CN-C846-Wb       -10        22         0         
  CN-C847-Wb       -10        22         0         
  CN-GD-005b       -10        22         0         
  CN-GD-005c       -10        22         0         
  CN-LKNESSb       -10        22         0         
  CN-LKNESSc       -10        22         0         
  CN-OL-005a       -10        22         0         
  CN-OL-010b       -10        22         0         
  CN-OL-010c       -10        22         0         
  CN-OL-010d       -10        22         0         
  N-OL-020         -8.3       20.3       10.4      
  CN-C8-055b       0          0          0         
  CN-C8-030b       0          0          0         
  ADVNL            0          1          0         
  NEWSUB           0          1          0         

[STORAGE]
;;                 Invert   Max.       Init.        Shape       Shape                           Ponded        Evap. 
;;Name             Elev.    Depth      Depth        Curve       Params                          Area          Frac. 
;;------------------------------------------------------------------------------------------------------------------
  N-C848-W         -10.6  22.6         12.7       TABULAR       N-C848-W_ST                    7.42066e+06    0     
  N-C846-W         -11.7  23.7         13.8       TABULAR       N-C846-W_ST                    7.42066e+06    0     
  N-C814-W         -4.2   16.2         6.3        TABULAR       N-C814-W_ST                    7.42066e+06    0     
  N-LKNESS         -7.2   19.2         9.3        TABULAR       N-LKNESS_ST                    7.42066e+06    0     
  N-C8-055         -8.05  20.05        10.15      TABULAR       N-C8-055_ST                    7.42066e+06    0     
  N-C8-050         -14.6  26.6         16.7       TABULAR       N-C8-050_ST                    7.42066e+06    0     
  N-C834-S         -11.6  23.6         13.7       TABULAR       N-C834-S_ST                    7.42066e+06    0     
  N-LSCOTT         -4.01  16.01        6.11       TABULAR       N-LSCOTT_ST                    7.42066e+06    0     
  N-C826-W         0.43   11.57        1.67       TABULAR       N-C826-W_ST                    7.42066e+06    0     
  N-C834-N         -2.22  14.22        4.32       TABULAR       N-C834-N_ST                    7.42066e+06    0     
  N-SEABOARD       -1     13           1          TABULAR       N-SEABOARD_ST                  7.42066e+06    0     
[SUBCATCHMENTS]
;;                                                   Total    Pcnt.             Pcnt.    Curb     Snow
;;Name             Raingage         Outlet           Area     Imperv   Width    Slope    Length   Pack
;;----------------------------------------------------------------------------------------------------
  N-C848-W#1       GAUGE2           N-C848-W         132.499  12       4950     0.03     0                
  N-C846-W#1       GAUGE2           N-C846-W         85.051   33.9     10260    0.03     0                
  N-C814-W#1       GAUGE3           N-C814-W         92.362   19.7     5362.5   0.03     0                
  N-C814-E#1       GAUGE3           N-C814-E         11.412   28.4     4050     0.12     0                
  N-GD-005#1       GAUGE3           N-GD-005         75.706   22.6     5670     0.03     0                
  N-LKNESS#1       GAUGE3           N-LKNESS         166.666  44.7     7320     0.05     0                
  N-C8-055#1       GAUGE4           N-C8-055         151.69   64.2     4387.5   0.15     0                
  N-C8-055#2       GAUGE4           N-C8-055         38.9     4.6      6720     0.56     0                
  N-C811-W#1       GAUGE4           N-C811-W         63.805   41.8     4372.5   0.05     0                
  N-C843-N#1       GAUGE3           N-C843-N         2.639    99.1     3300     0.5      0                
  N-C8-050#1       GAUGE4           N-C8-050         227.34   40.3     7290     0.03     0                
  N-C807-N#1       GAUGE4           N-C807-N         11.05    68       5550     0.5      0                
  N-C808-S#1       GAUGE4           N-C808-S         8.633    65.8     1560     0.5      0                
  N-C809-S#1       GAUGE4           N-C809-S         15.482   45.1     4680     0.03     0                
  N-C815-W#1       GAUGE4           N-C815-W         23.709   32.2     6960     0.5      0                
  N-C815-W#2       GAUGE4           N-C815-W         707.1    1.3      7950     0.03     0                
  N-C816-W#1       GAUGE4           N-C816-W         132.885  17.9     6900     0.03     0                
  N-C824-W#1       GAUGE5           N-C824-W         398.8    31.9     4360.5   0.03     0                
  N-C824-E#1       GAUGE5           N-C824-E         6.938    62.5     3300     0.5      0                
  N-C824-E#2       GAUGE5           N-C824-E         12.1     18       4703     0.05     0                
  N-C824-E#3       GAUGE5           N-C824-E         19.9     25.6     3510     0.08     0                
  N-C817-E#1       GAUGE5           N-C817-E         8.94     14.6     3840     0.05     0                
  N-C817-E#2       GAUGE5           N-C817-E         12.6     36.7     4418     0.08     0                
  N-C817-W#1       GAUGE5           N-C817-W         17.108   64.8     8550     0.5      0                
  N-C8-045#1       GAUGE6           N-C8-045         13.124   32.7     4440     0.03     0                
  N-C8-045#2       GAUGE6           N-C8-045         4.5      31.2     1560     0.15     0                
  N-C8-045#3       GAUGE5           N-C8-045         9.4      64.5     3900     0.5      0                
  N-C820-W#1       GAUGE5           N-C820-W         29.5     25.6     5670     0.18     0                
  N-C821-W#1       GAUGE5           N-C821-W         19.632   72.3     7837.5   0.5      0                
  N-OL-015#1       GAUGE6           N-OL-015         49.57    42       9450     0.03     0                
  N-OL-010#1       GAUGE6           N-OL-010         3.855    15.2     1530     0.07     0                
  N-OL-010#2       GAUGE6           N-OL-010         36.3     46.3     5355     0.14     0                
  N-OL-010#3       GAUGE6           N-OL-010         5.5      26.1     2250     0.16     0                
  N-OL-010#4       GAUGE6           N-OL-010         3        23.2     1575     0.15     0                
  N-C8-040#1       GAUGE6           N-C8-040         9.483    30.1     5700     0.04     0                
  N-C8-040#2       GAUGE6           N-C8-040         13.5     32.4     4050     0.08     0                
  N-C8-040#3       GAUGE6           N-C8-040         11.5     54       3120     0.5      0                
  N-C8-035#1       GAUGE7           N-C8-035         49.832   25.8     3052.5   0.03     0                
  N-C8-035#2       GAUGE7           N-C8-035         6.7      75.2     4050     0.5      0                
  N-C834-S#1       GAUGE7           N-C834-S         249.707  48.9     13905    0.1      0                
  N-LSCOTT#1       GAUGE7           N-LSCOTT         87.463   46.1     4995     0.01     0                
  N-C833-N#1       GAUGE6           N-C833-N         32.235   40.7     6720     0.03     0                
  N-C833-N#2       GAUGE7           N-C833-N         39.635   38.8     5310     0.03     0                
  N-C826-W#1       GAUGE6           N-C826-W         153.393  36.3     7522.5   0.03     0                
  N-C826-W#2       GAUGE5           N-C826-W         375.6    1.2      10260    0.06     0                
  N-C834-N#1       GAUGE7           N-C834-N         72.859   28.9     3240     0.17     0                
  N-C8-030#1       GAUGE7           N-C8-030         18       39.6     10050    0.16     0                
  N-C8-025#1       GAUGE7           N-C8-025         44.823   70       13537.5  0.5      0                
  N-C8-025#2       GAUGE7           N-C8-025         14.3     5.7      450      0.17     0                
  N-C8-025#3       GAUGE7           N-C8-025         501.6    4.4      5700     0.11     0                
  N-C8-025#4       GAUGE7           N-C8-025         37.1     37.4     4883     0.05     0                
  N-C8-025#5       GAUGE7           N-C8-025         14.8     32.2     11850    0.18     0                
  N-C8-020#1       GAUGE7           N-C8-020         6.9      30.3     4500     0.23     0                
  N-C8-020#2       GAUGE7           N-C8-020         96.824   32.2     9960     0.54     0                
  N-C8-020#3       GAUGE7           N-C8-020         149.1    24.2     2250     0.09     0                
  N-C8-020#4       GAUGE7           N-C8-020         86.2     27.8     2850     0.05     0                
  N-C8-015#1       GAUGE7           N-C8-015         177.723  28.3     6982.5   0.08     0                
  N-C8-015#2       GAUGE7           N-C8-015         405.742  23.2     7050     0.11     0                
  N-C8-010#1       GAUGE7           N-C8-010         8.169    69.4     3675     0.38     0                
  N-C8-010#2       GAUGE7           N-C8-010         118.2    33.9     3150     0.24     0                
  N-C8-060#1       GAUGE3           N-C8-060         61.067   3.2      8775     0.56     0                
  CN-LSCOTT#1      GAUGE7           CN-LSCOTT        489.35   0        6900     0.03     0                
  CN-C833-N#1      GAUGE7           CN-C833-N        68.984   0        5700     0.2      0                
  CN-C826-Wb#1     GAUGE6           CN-C826-Wb       92.328   0        2025     0.03     0                
  CN-C831-W#1      GAUGE7           CN-C831-W        71.697   0        1950     0.15     0                
  CN-C8-005#1      GAUGE7           CN-C8-005        139.662  0        3300     0.24     0                
  CN-C8-010a#1     GAUGE7           CN-C8-010a       334.898  0        6450     0.17     0                
  CN-C8-020#1      GAUGE7           CN-C8-020        68.329   0        3450     0.07     0                
  CN-C8-025a#1     GAUGE7           CN-C8-025a       890.353  0        11700    0.16     0                
  CN-C8-030a#1     GAUGE7           CN-C8-030a       49.39    0        1950     0.16     0                
  CN-C8-035a#1     GAUGE7           CN-C8-035a       268.684  0        4800     0.03     0                
  CN-OL-005b#1     GAUGE6           CN-OL-005b       59.625   0        1800     0.07     0                
  CN-OL-010a#1     GAUGE7           CN-OL-010a       64.95    0        6517.5   0.2      0                
  CN-C834-S#1      GAUGE7           CN-C834-S        449.212  0        7200     0.08     0                
  CN-C8-040a#1     GAUGE6           CN-C8-040a       218.785  0        5700     0.05     0                
  CN-C8-050a#1     GAUGE4           CN-C8-050a       311.16   0        4500     0.05     0                
  N-C802-S#1       GAUGE4           N-C802-S         11.8     36       2250     0.09     0                
  N-C805-N#1       GAUGE4           N-C805-N         15.547   57.9     4920     0.15     0                
  CN-C802-Sa#1     GAUGE4           CN-C802-Sa       39.495   0        5880     0.21     0                
  CN-C807-N#1      GAUGE4           CN-C807-N        126.178  0        2850     0.09     0                
  CN-C809-S#1      GAUGE4           CN-C809-S        303.799  0        4800     0.09     0                
  CN-C8-055a#1     GAUGE4           CN-C8-055a       108.782  0        1425     0.04     0                
  CN-LKNESSa#1     GAUGE3           CN-LKNESSa       27.212   0        450      0.14     0                
  CN-GD-005a#1     GAUGE3           CN-GD-005a       110.22   0        7155     0.25     0                
  CN-C846-Wa#1     GAUGE2           CN-C846-Wa       371.852  0        5550     0.14     0                
  CN-C847-Wa#1     GAUGE2           CN-C847-Wa       131.559  0        4050     0.11     0                
  CN-C849-W#1      GAUGE1           CN-C849-W        634.966  0        11550    0.03     0                
  CN-C843-N#1      GAUGE3           CN-C843-N        62.658   0        2250     0.07     0                
  CN-C844-N#1      GAUGE2           CN-C844-N        303.001  0        5850     0.04     0                
  CN-C8-060a#1     GAUGE2           CN-C8-060a       171.21   0        3600     0.03     0                
  CN-C820-Wa#1     GAUGE5           CN-C820-Wa       657.364  0        7500     0.05     0                
  CN-C817-W#1      GAUGE5           CN-C817-W        217.008  0        4500     0.03     0                
  CN-C814-W#1      GAUGE3           CN-C814-W        318.369  0        9720     0.07     0                
  CN-C8-010b#1     GAUGE7           CN-C8-010b       268.425  0        3300     0.24     0                
  CN-C8-030c#1     GAUGE7           CN-C8-030c       36.447   0        7800     1.03     0                
  CN-C8-030d#1     GAUGE7           CN-C8-030d       8.284    0        1950     0.17     0                
  CN-C8-030e#1     GAUGE7           CN-C8-030e       45.679   0        10050    0.08     0                
  CN-C8-035b#1     GAUGE7           CN-C8-035b       228.062  0        5700     0.03     0                
  CN-C8-035c#1     GAUGE7           CN-C8-035c       129.979  0        1950     0.07     0                
  CN-C8-040b#1     GAUGE6           CN-C8-040b       65.912   0        2400     0.09     0                
  CN-C8-045a#1     GAUGE5           CN-C8-045a       436.001  0        5550     0.1      0                
  CN-C8-045c#1     GAUGE5           CN-C8-045c       117.486  0        1650     0.07     0                
  CN-C8-045b#1     GAUGE5           CN-C8-045b       31.139   0        4590     0.73     0                
  CN-C8-050b#1     GAUGE4           CN-C8-050b       38.278   0        2280     0.05     0                
  CN-C8-055c#1     GAUGE4           CN-C8-055c       45.428   0        4200     0.11     0                
  CN-C8-055d#1     GAUGE4           CN-C8-055d       205.22   0        4650     0.07     0                
  CN-C8-060b#1     GAUGE2           CN-C8-060b       392.733  0        8505     0.03     0                
  CN-C8-060c#1     GAUGE2           CN-C8-060c       51.483   0        7200     0.03     0                
  CN-C8-060d#1     GAUGE1           CN-C8-060d       881.438  0        11250    0.03     0                
  CN-C814-E#1      GAUGE4           CN-C814-E        190.204  0        7155     0.07     0                
  CN-C824-Wa#1     GAUGE5           CN-C824-Wa       37.465   0        5355     0.73     0                
  CN-C824-Wb#1     GAUGE5           CN-C824-Wb       443.746  0        5550     0.06     0                
  CN-C826-Wa#1     GAUGE6           CN-C826-Wa       118.269  0        2250     0.09     0                
  CN-C846-Wb#1     GAUGE2           CN-C846-Wb       174.382  0        7650     0.15     0                
  CN-C847-Wb#1     GAUGE2           CN-C847-Wb       142.248  0        3900     0.03     0                
  CN-GD-005b#1     GAUGE3           CN-GD-005b       122.187  0        4485     0.08     0                
  CN-GD-005c#1     GAUGE3           CN-GD-005c       57.116   0        900      0.25     0                
  CN-LKNESSb#1     GAUGE3           CN-LKNESSb       66.864   0        2700     0.07     0                
  CN-LKNESSc#1     GAUGE3           CN-LKNESSc       127.787  0        8250     0.09     0                
  CN-OL-005a#1     GAUGE7           CN-OL-005a       148.191  0        5992.5   0.2      0                
  CN-OL-010b#1     GAUGE6           CN-OL-010b       46.626   0        1800     0.05     0                
  CN-OL-010c#1     GAUGE6           CN-OL-010c       52.092   0        1950     0.05     0                
  CN-OL-010d#1     GAUGE6           CN-OL-010d       73.979   0        3900     0.05     0                
  N-SEABOARD#1     GAUGE7           N-SEABOARD       27.651   17.4     5565     0.06     0                
  N-SEABOARD#2     GAUGE7           N-SEABOARD       217      1.1      4650     0.07     0                
  CN-C8-055b#1     GAUGE3           CN-C8-055b       10.1     0        2760     0.12     0                
  CN-C8-030b#1     GAUGE7           CN-C8-030b       253.4    0        16200    0.23     0                

[SUBAREAS]
;;Subcatchment     N-Imperv   N-Perv     S-Imperv   S-Perv     PctZero    RouteTo    PctRouted
;;--------------------------------------------------------------------------------------------
  N-C848-W#1       0.04       0.3        0.1        0.228      25         OUTLET     
  N-C846-W#1       0.04       0.3        0.1        0.148      25         OUTLET     
  N-C814-W#1       0.04       0.3        0.1        0.151      25         OUTLET     
  N-C814-E#1       0.04       0.3        0.1        0.337      25         OUTLET     
  N-GD-005#1       0.04       0.3        0.1        0.149      25         OUTLET     
  N-LKNESS#1       0.04       0.3        0.1        0.218      25         OUTLET     
  N-C8-055#1       0.04       0.3        0.1        0.347      25         OUTLET     
  N-C8-055#2       0.04       0.3        0.1        0.141      25         OUTLET     
  N-C811-W#1       0.04       0.3        0.1        0.208      25         OUTLET     
  N-C843-N#1       0.04       0.3        0.1        0.5        25         OUTLET     
  N-C8-050#1       0.04       0.3        0.1        0.296      25         OUTLET     
  N-C807-N#1       0.04       0.3        0.1        0.438      25         OUTLET     
  N-C808-S#1       0.04       0.3        0.1        0.348      25         OUTLET     
  N-C809-S#1       0.04       0.3        0.1        0.336      25         OUTLET     
  N-C815-W#1       0.04       0.3        0.1        0.284      25         OUTLET     
  N-C815-W#2       0.04       0.3        0.1        0.108      25         OUTLET     
  N-C816-W#1       0.04       0.3        0.1        0.144      25         OUTLET     
  N-C824-W#1       0.04       0.3        0.1        0.204      25         OUTLET     
  N-C824-E#1       0.04       0.3        0.1        0.302      25         OUTLET     
  N-C824-E#2       0.04       0.3        0.1        0.632      25         OUTLET     
  N-C824-E#3       0.04       0.3        0.1        0.616      25         OUTLET     
  N-C817-E#1       0.04       0.3        0.1        0.911      25         OUTLET     
  N-C817-E#2       0.04       0.3        0.1        0.509      25         OUTLET     
  N-C817-W#1       0.04       0.3        0.1        0.369      25         OUTLET     
  N-C8-045#1       0.04       0.3        0.1        0.217      25         OUTLET     
  N-C8-045#2       0.04       0.3        0.1        0.238      25         OUTLET     
  N-C8-045#3       0.04       0.3        0.1        0.249      25         OUTLET     
  N-C820-W#1       0.04       0.3        0.1        0.292      25         OUTLET     
  N-C821-W#1       0.04       0.3        0.1        0.221      25         OUTLET     
  N-OL-015#1       0.04       0.3        0.1        0.174      25         OUTLET     
  N-OL-010#1       0.04       0.3        0.1        0.42       25         OUTLET     
  N-OL-010#2       0.04       0.3        0.1        0.515      25         OUTLET     
  N-OL-010#3       0.04       0.3        0.1        0.324      25         OUTLET     
  N-OL-010#4       0.04       0.3        0.1        0.324      25         OUTLET     
  N-C8-040#1       0.04       0.3        0.1        0.22       25         OUTLET     
  N-C8-040#2       0.04       0.3        0.1        0.238      25         OUTLET     
  N-C8-040#3       0.04       0.3        0.1        0.263      25         OUTLET     
  N-C8-035#1       0.04       0.3        0.1        0.211      25         OUTLET     
  N-C8-035#2       0.04       0.3        0.1        0.382      25         OUTLET     
  N-C834-S#1       0.04       0.3        0.1        0.195      25         OUTLET     
  N-LSCOTT#1       0.04       0.3        0.1        0.212      25         OUTLET     
  N-C833-N#1       0.04       0.3        0.1        0.187      25         OUTLET     
  N-C833-N#2       0.04       0.3        0.1        0.212      25         OUTLET     
  N-C826-W#1       0.04       0.3        0.1        0.278      25         OUTLET     
  N-C826-W#2       0.04       0.3        0.1        0.188      25         OUTLET     
  N-C834-N#1       0.04       0.3        0.1        0.413      25         OUTLET     
  N-C8-030#1       0.04       0.3        0.1        0.184      25         OUTLET     
  N-C8-025#1       0.04       0.3        0.1        0.231      25         OUTLET     
  N-C8-025#2       0.04       0.3        0.1        0.298      25         OUTLET     
  N-C8-025#3       0.04       0.3        0.1        0.162      25         OUTLET     
  N-C8-025#4       0.04       0.3        0.1        0.246      25         OUTLET     
  N-C8-025#5       0.04       0.3        0.1        1.459      25         OUTLET     
  N-C8-020#1       0.04       0.3        0.1        0.211      25         OUTLET     