[TITLE]
;;Project Title/Notes
Scenario Run :  NRCSDMENSIONLESS

[OPTIONS]
;;Option             Value
FLOW_UNITS           CFS
INFILTRATION         CURVE_NUMBER
FLOW_ROUTING         DYNWAVE
LINK_OFFSETS         DEPTH
MIN_SLOPE            0
ALLOW_PONDING        NO
SKIP_STEADY_STATE    NO

IGNORE_SNOWMELT      YES
IGNORE_GROUNDWATER   YES
IGNORE_QUALITY       YES
START_DATE           07/15/1977
START_TIME           00:00:00
REPORT_START_DATE    07/15/1977
REPORT_START_TIME    00:00:00
END_DATE             07/16/1977
END_TIME             06:00:00
SWEEP_START          01/01
SWEEP_END            01/01
DRY_DAYS             7.000000
REPORT_STEP          00:01:00
WET_STEP             00:05:00
DRY_STEP             00:05:00
ROUTING_STEP         0:00:10 

INERTIAL_DAMPING     NONE
NORMAL_FLOW_LIMITED  BOTH
FORCE_MAIN_EQUATION  H-W
VARIABLE_STEP        0.75
LENGTHENING_STEP     0
MIN_SURFAREA         12.566000
MAX_TRIALS           4
HEAD_TOLERANCE       0.005000
SYS_FLOW_TOL         5
LAT_FLOW_TOL         5
MINIMUM_STEP         0
THREADS              1

[EVAPORATION]
;;Data Source    Parameters
;;-------------- ----------------
CONSTANT         0.000000
RECOVERY         EVAPORATION
DRY_ONLY         NO

[RAINGAGES]
;;Name           Format    Interval SCF      Source    
;;-------------- --------- ------ ------ ----------
GAGE1            INTENSITY 1.000000 1.000000 TIMESERIES 25YEAR          
GAGE500YEAR      INTENSITY 1.000000 1.000000 TIMESERIES 500YEAR         

[SUBCATCHMENTS]
;;Name           Rain Gage        Outlet           Area     %Imperv  Width    %Slope   CurbLen  SnowPack        
;;-------------- ---------------- ---------------- -------- -------- -------- -------- -------- ----------------
45               GAGE1            C                1.067258 0.000000 500.000000 1.000000 0.000000                 
47.5             GAGE1            B                0.503576 0.000000 500.000000 1.000000 0.000000                 
50               GAGE1            B                0.688776 0.000000 500.000000 1.000000 0.000000                 
52.5             GAGE1            B                1.405838 0.000000 500.000000 1.000000 0.000000                 
55               GAGE1            C                0.579845 0.000000 500.000000 1.000000 0.000000                 
57.5             GAGE1            C                0.794172 0.000000 500.000000 1.000000 0.000000                 
60               GAGE1            C                1.330074 0.000000 500.000000 1.000000 0.000000                 
62.5             GAGE1            B                1.201949 0.000000 500.000000 1.000000 0.000000                 
65               GAGE1            B                1.184439 0.000000 500.000000 1.000000 0.000000                 
67.5             GAGE1            B                0.386058 0.000000 500.000000 1.000000 0.000000                 
70               GAGE1            B                0.307937 0.000000 500.000000 1.000000 0.000000                 
72.5             GAGE1            B                0.964051 0.000000 500.000000 1.000000 0.000000                 
75               GAGE1            B                1.286597 0.000000 500.000000 1.000000 0.000000                 
77.5             GAGE1            B                3.215955 0.000000 500.000000 1.000000 0.000000                 
80               GAGE1            B                2.295827 0.000000 500.000000 1.000000 0.000000                 
82.5             GAGE1            B                1.895046 0.000000 500.000000 1.000000 0.000000                 
85               GAGE1            B                1.083781 0.000000 500.000000 1.000000 0.000000                 
87.5             GAGE1            B                2.426068 0.000000 500.000000 1.000000 0.000000                 
90               GAGE1            B                7.273174 0.000000 500.000000 1.000000 0.000000                 
92.5             GAGE1            B                6.542052 0.000000 500.000000 1.000000 0.000000                 
95               GAGE1            G                8.131895 0.000000 200.000000 1.000000 0.000000                 
96.5             GAGE1            C                3.617405 0.000000 600.000000 1.000000 0.000000                 
98               GAGE1            A                11.676852 0.000000 600.000000 1.000000 0.000000                 

[SUBAREAS]
;;Subcatchment   N-Imperv   N-Perv     S-Imperv   S-Perv     PctZero    RouteTo    PctRouted 
;;-------------- ---------- ---------- ---------- ---------- ---------- ---------- ----------
45               0          0          0.000000   2.44       1.0        OUTLET    
47.5             0          0          0.000000   2.21       1.0        OUTLET    
50               0          0          0.000000   2.00       1.0        OUTLET    
52.5             0          0          0.000000   1.81       1.0        OUTLET    
55               0          0          0.000000   1.64       1.0        OUTLET    
57.5             0          0          0.000000   1.48       1.0        OUTLET    
60               0          0          0.000000   1.33       1.0        OUTLET    
62.5             0          0          0.000000   1.20       1.0        OUTLET    
65               0          0          0.000000   1.08       1.0        OUTLET    
67.5             0          0          0.000000   0.96       1.0        OUTLET    
70               0          0          0.000000   0.86       1.0        OUTLET    
72.5             0          0          0.000000   0.76       1.0        OUTLET    
75               0          0          0.000000   0.67       1.0        OUTLET    
77.5             0          0          0.000000   0.58       1.0        OUTLET    
80               0          0          0.000000   0.50       1.0        OUTLET    
82.5             0          0          0.000000   0.42       1.0        OUTLET    
85               0          0          0.000000   0.35       1.0        OUTLET    
87.5             0          0          0.000000   0.29       1.0        OUTLET    
90               0          0          0.000000   0.22       1.0        OUTLET    
92.5             0          0          0.000000   0.16       1.0        OUTLET    
95               0          0          0.000000   0.11       1.0        OUTLET    
96.5             0          0          0.000000   0.07       1.0        OUTLET    
98               0          0          0.000000   0.04       1.0        OUTLET    

[INFILTRATION]
;;Subcatchment   CurveNum              DryTime   
;;-------------- ---------- ---------- ----------
45               45.000000  1.000000   1.000000  
47.5             47.500000  1.000000   1.000000  
50               50.000000  1.000000   1.000000  
52.5             52.500000  1.000000   1.000000  
55               55.000000  1.000000   1.000000  
57.5             57.500000  1.000000   1.000000  
60               60.000000  1.000000   1.000000  
62.5             62.500000  1.000000   1.000000  
65               65.000000  1.000000   1.000000  
67.5             67.500000  1.000000   1.000000  
70               70.000000  1.000000   1.000000  
72.5             72.500000  1.000000   1.000000  
75               75.000000  1.000000   1.000000  
77.5             77.500000  1.000000   1.000000  
80               80.000000  1.000000   1.000000  
82.5             82.500000  1.000000   1.000000  
85               85.000000  1.000000   1.000000  
87.5             87.500000  1.000000   1.000000  
90               90.000000  1.000000   1.000000  
92.5             92.500000  1.000000   1.000000  
95               95.000000  1.000000   1.000000  
96.5             96.500000  1.000000   1.000000  
98               98.000000  1.000000   1.000000  

[LID_CONTROLS]
;;Name           Type/Layer Parameters
;;-------------- ---------- ----------
LID-102          BC
LID-102          SURFACE    1.000000   0.100000   0.100000   1.000000   5.000000  
LID-102          SOIL       1.000000   0.500000   0.200000   0.100000   0.500000   10.000000  3.500000  
LID-102          STORAGE    1.000000   0.750000   0.500000   0.000000  
LID-102          DRAIN      0.000000   0.500000   6.000000   6.000000  

BR               BC
BR               SURFACE    1.000000   0.100000   0.100000   1.000000   5.000000  
BR               SOIL       1.000000   0.500000   0.200000   0.100000   0.500000   10.000000  3.500000  
BR               STORAGE    1.000000   0.750000   0.500000   0.000000  
BR               DRAIN      0.000000   0.500000   6.000000   6.000000  

RG               RG
RG               SURFACE    5.000000   0.100000   0.100000   1.000000   5.000000  
RG               SOIL       1.000000   0.500000   0.200000   0.100000   0.500000   10.000000  3.500000  
RG               STORAGE    1.000000   0.750000   0.500000   0.000000  

[LID_USAGE]
;;Subcatchment   LID Process      Number  Area       Width      InitSat    FromImp    ToPerv     RptFile                  DrainTo         
;;-------------- ---------------- ------- ---------- ---------- ---------- ---------- ---------- ------------------------ ----------------

[AQUIFERS]
;;Name           Por    WP     FC     Ksat   Kslope Tslope ETu    ETs    Seep   Ebot   Egw    Umc    ETupat 
;;-------------- ------ ------ ------ ------ ------ ------ ------ ------ ------ ------ ------ ------ ------
AQ               0.500000 0.150000 0.300000 10.000000 1.000000 15.000000 0.350000 0.350000 0.002000 0.000000 5.000000 0.250000       

[GROUNDWATER]
;;Subcatchment   Aquifer          Node             Esurf  A1     B1     A2     B2     A3     Dsw    Egwt   Ebot   Wgr    Umc   
;;-------------- ---------------- ---------------- ------ ------ ------ ------ ------ ------ ------ ------ ------ ------ ------
92.5             AQ               B                0.000000 1.000000 1.000000 1.000000 1.000000 0.000000 0.000000 0.000000 0.000000 0.000000 0.250000
95               AQ               C                0.000000 1.000000 1.000000 1.000000 1.000000 0.000000 0.000000 0.000000 0.000000 0.000000 0.250000
96.5             AQ               B                0.000000 1.000000 1.000000 1.000000 1.000000 0.000000 0.000000 0.000000 0.000000 0.000000 0.250000
98               AQ               G                0.000000 1.000000 1.000000 1.000000 1.000000 0.000000 0.000000 0.000000 0.000000 0.000000 0.250000

[JUNCTIONS]
;;Name           Elevation  MaxDepth   InitDepth  SurDepth   Aponded   
;;-------------- ---------- ---------- ---------- ---------- ----------
A                1.100000   20.000000  0.000000   0.000000   0.000000  
B                9.000000   20.000000  0.000000   0.000000   0.000000  
C                8.000000   6.000000   0.000000   0.000000   0.000000  
; New Junction
E                0.500000   4.000000   0.000000   0.000000   0.000000  
G                3.000000   5.000000   0.000000   0.000000   0.000000  

[OUTFALLS]
;;Name           Elevation  Type       Stage Data       Gated    Route To        
;;-------------- ---------- ---------- ---------------- -------- ----------------
OUTLET           0.000000   FREE                        NO                       

[CONDUITS]
;;Name           From Node        To Node          Length     Roughness  InOffset   OutOffset  InitFlow   MaxFlow   
;;-------------- ---------------- ---------------- ---------- ---------- ---------- ---------- ---------- ----------
A                A                E                220.000000 0.015000   0.000000   0.000000   0.000000   0.000000  
B                G                A                182.780407 0.015000   0.000000   0.000000   0.000000   0.000000  
C                B                C                505.000000 0.024000   0.000000   0.000000   0.000000   0.000000  
D                C                G                263.256269 0.024000   0.000000   0.000000   0.000000   0.000000  
; New Conduit
F                E                OUTLET           255.174254 0.015000   0.000000   0.000000   0.000000   0.000000  

[XSECTIONS]
;;Link           Shape        Geom1            Geom2      Geom3      Geom4      Barrels    Culvert   
;;-------------- ------------ ---------------- ---------- ---------- ---------- ---------- ----------
A                CIRCULAR     0.300000         0.000000   0.000000   0.000000   1          0         
B                CIRCULAR     0.300000         0.000000   0.000000   0.000000   1          0         
C                CIRCULAR     0.300000         0.000000   0.000000   0.000000   1          0         
D                CIRCULAR     0.300000         0.000000   0.000000   0.000000   1          0         
F                CIRCULAR     0.300000         0.000000   0.000000   0.000000   1          0         

[LOSSES]
;;Link           Kentry     Kexit      Kavg       Flap Gate  Seepage   
;;-------------- ---------- ---------- ---------- ---------- ----------
A                0.000000   0.000000   0.000000   NO         0.100000  
B                0.000000   0.000000   0.000000   NO         0.100000  
C                0.000000   0.000000   0.000000   NO         0.000000  
D                0.000000   0.000000   0.000000   NO         0.000000  
F                0.000000   0.000000   0.000000   NO         0.100000  

[CONTROLS]




[INFLOWS]
;;Node           Constituent      Time Series      Type     Mfactor  Sfactor  Baseline Pattern
;;-------------- ---------------- ---------------- -------- -------- -------- -------- --------
C                FLOW             ""               FLOW     1.0      1.000000 0.000000

[DWF]
;;Node           Constituent      Baseline   Patterns  
;;-------------- ---------------- ---------- ----------
A                FLOW             0.031270   ""
B                FLOW             0.031270   ""
C                FLOW             0.031270   ""
G                FLOW             0.031270   ""

[HYDROGRAPHS]
;;Hydrograph     Rain Gage/Month  Response R        T        K        Dmax     Drecov   Dinit   
;;-------------- ---------------- -------- -------- -------- -------- -------- -------- --------
2050RTK          GAGE1           
2050RTK          All              Short    0.020000 1.000000 1.000000 1.000000 1.000000 0.000000
2050RTK          All              Medium   0.020000 2.000000 2.000000 1.000000 1.000000 0.000000
2050RTK          All              Long     0.020000 3.000000 3.000000 1.000000 1.000000 0.000000
BASERTK          GAGE1           
BASERTK          All              Short    0.010000 1.000000 2.000000 1.000000 1.000000 0.000000
BASERTK          All              Medium   0.010000 2.000000 3.000000 1.000000 1.000000 0.000000
BASERTK          All              Long     0.010000 3.000000 4.000000 1.000000 1.000000 0.000000


[CURVES]
;;Name           Type       X-Value    Y-Value   
;;-------------- ---------- ---------- ----------
CUNETTE          SHAPE      0.000000   0.000000  
CUNETTE                     0.020000   0.140000  
CUNETTE                     0.040000   0.195950  
CUNETTE                     0.060000   0.237500  
CUNETTE                     0.080000   0.271300  
CUNETTE                     0.100000   0.300000  
CUNETTE                     0.120000   0.324950  
CUNETTE                     0.140000   0.347000  
CUNETTE                     0.160000   0.366600  
CUNETTE                     0.180000   0.384200  
CUNETTE                     0.200000   0.400000  
CUNETTE                     0.220000   0.414250  
CUNETTE                     0.240000   0.427100  
CUNETTE                     0.260000   0.438650  
CUNETTE                     0.280000   0.449000  
CUNETTE                     0.300000   0.458250  
CUNETTE                     0.320000   0.933000  
CUNETTE                     0.340000   0.947400  
CUNETTE                     0.360000   0.960000  
CUNETTE                     0.380000   0.970800  
CUNETTE                     0.400000   0.979800  
CUNETTE                     0.420000   0.987100  
CUNETTE                     0.440000   0.992800  
CUNETTE                     0.460000   0.996800  
CUNETTE                     0.480000   0.999200  
CUNETTE                     0.500000   1.000000  
CUNETTE                     0.520000   0.999200  
CUNETTE                     0.540000   0.996800  
CUNETTE                     0.560000   0.992800  
CUNETTE                     0.580000   0.987100  
CUNETTE                     0.600000   0.979800  
CUNETTE                     0.620000   0.970800  
CUNETTE                     0.640000   0.960000  
CUNETTE                     0.660000   0.947400  
CUNETTE                     0.680000   0.933000  
CUNETTE                     0.700000   0.916500  
CUNETTE                     0.720000   0.898000  
CUNETTE                     0.740000   0.877300  
CUNETTE                     0.760000   0.854200  
CUNETTE                     0.780000   0.828500  
CUNETTE                     0.800000   0.800000  
CUNETTE                     0.820000   0.768400  
CUNETTE                     0.840000   0.733200  
CUNETTE                     0.860000   0.694000  
CUNETTE                     0.880000   0.649900  
CUNETTE                     0.900000   0.600000  
CUNETTE                     0.920000   0.542600  
CUNETTE                     0.940000   0.475000  
CUNETTE                     0.960000   0.391900  
CUNETTE                     0.980000   0.280000  
CUNETTE                     1.000000   0.000000  

[TIMESERIES]
;;Name           Date       Time       Value     
;;-------------- ---------- ---------- ----------
RAINSERIES1      07/15/1977 06:30      0.000000  
RAINSERIES1                 06:35      0.840000  
RAINSERIES1                 06:40      0.040000  
RAINSERIES1                 06:45      0.020000  
RAINSERIES1                 06:50      0.000000  
RAINSERIES1                 07:05      0.000000  
RAINSERIES1                 07:10      0.680000  
RAINSERIES1                 07:15      0.880000  
RAINSERIES1      07/15/1977 07:20      2.020000  
RAINSERIES1                 07:25      2.130000  
RAINSERIES1                 07:30      0.630000  
RAINSERIES1                 07:35      2.330000  
RAINSERIES1                 07:40      0.310000  
RAINSERIES1      07/15/1977 07:45      0.200000  
RAINSERIES1                 07:50      0.000000  
RAINSERIES1                 08:00      0.000000  
RAINSERIES1                 08:05      0.020000  
RAINSERIES1      07/15/1977 08:10      0.000000  
RAINSERIES1                 08:25      0.000000  
RAINSERIES1                 08:30      0.220000  
RAINSERIES1      07/15/1977 08:35      2.390000  
RAINSERIES1                 08:40      0.400000  
RAINSERIES1                 08:45      0.860000  
RAINSERIES1                 08:50      2.790000  
RAINSERIES1                 08:55      1.380000  
RAINSERIES1      07/15/1977 09:00      1.080000  
RAINSERIES1                 09:05      0.640000  
RAINSERIES1                 09:10      0.020000  
RAINSERIES1                 09:15      0.150000  
RAINSERIES1                 09:20      0.000000  
;
CONSTANTRAIN                0:00       0.000000  
CONSTANTRAIN                1:00       0.000000  
CONSTANTRAIN                2:00       1.000000  
CONSTANTRAIN                3:00       0.000000  
;
10YEAR                      0:00       0.000000  
10YEAR                      1:00       0.000000  
10YEAR                      2:00       3.500000  
10YEAR                      3:00       0.000000  
;
25YEAR                      0:00       0.000000  
25YEAR                      1:00       0.000000  
25YEAR                      2:00       5.000000  
25YEAR                      3:00       0.000000  
;
50YEAR                      0:00       0.000000  
50YEAR                      1:00       0.000000  
50YEAR                      2:00       7.000000  
50YEAR                      3:00       0.000000  
;
100YEAR                     0:00       2.272727  
100YEAR                     1:00       4.545455  
100YEAR                     2:00       11.363636 
100YEAR                     3:00       4.545455  
100YEAR                     4:00       2.272727  
100YEAR                     5:00       0.000000  
;
500YEAR                     0:00       0.000000  
500YEAR                     1:00       0.000000  
500YEAR                     2:00       15.000000 
500YEAR                     3:00       0.000000  

[PATTERNS]
;;Name           Type       Multipliers
;;-------------- ---------- -----------
EVAPORATION      MONTHLY    5.000000 5.000000 2.000000 2.000000 3.000000 3.000000
EVAPORATION                 2.000000 2.000000 2.000000 1.000000 1.000000 1.000000
;
NORMALDAYS       DAILY      1.000000 1.000000 1.000000 0.000000 1.000000 1.000000 1.000000
;
ODDDATYPATTERN   HOURLY     0.000000 0.000000 0.000000 0.000000 0.000000 0.000000
ODDDATYPATTERN              0.000000 1.000000 1.000000 1.000000 1.000000 1.000000
ODDDATYPATTERN              0.000000 0.000000 0.000000 1.000000 1.000000 1.000000
ODDDATYPATTERN              1.000000 1.000000 0.000000 0.000000 0.000000 0.000000
;
ONEDAY           DAILY      0.000000 0.000000 0.000000 1.000000 0.000000 0.000000 0.000000

[REPORT]
;;Reporting Options
INPUT      YES
CONTROLS   NO
SUBCATCHMENTS ALL
NODES ALL
LINKS ALL

[TAGS]

[MAP]
DIMENSIONS -810.930 -304.277 1007.605 1060.240
Units      None

[COORDINATES]
;;Node           X-Coord            Y-Coord           
;;-------------- ------------------ ------------------
A                95.350             315.596           
B                295.273            482.198           
C                448.088            412.110           
E                71.618             115.209           
G                257.253            230.765           
OUTLET           -183.421           123.522           

[VERTICES]
;;Link           X-Coord            Y-Coord           
;;-------------- ------------------ ------------------

[Polygons]
;;Subcatchment   X-Coord            Y-Coord           
;;-------------- ------------------ ------------------
45               924.944            711.954           
45               868.059            633.049           
45               855.214            634.884           
45               794.658            634.884           
45               750.618            671.584           
45               805.668            724.799           
45               831.358            724.799           
47.5             260.669            998.216           
47.5             286.359            963.351           
47.5             264.339            956.011           
47.5             229.474            932.156           
47.5             185.434            932.156           
47.5             183.599            943.166           
47.5             178.093            987.206           
50               603.817            992.711           
50               636.847            937.661           
50               633.177            933.991           
50               583.632            910.136           
50               567.116            906.466           
50               515.736            956.011           
50               532.251            989.041           
52.5             735.938            961.516           
52.5             923.109            948.671           
52.5             919.439            928.486           
52.5             858.884            895.456           
52.5             752.453            869.765           
52.5             691.897            899.126           
52.5             691.897            921.146           
55               772.638            816.550           
55               921.274            801.870           
55               921.274            781.685           
55               745.113            765.170           
57.5             776.308            581.668           
57.5             868.059            517.443           
57.5             862.554            513.773           
57.5             858.884            500.928           
57.5             840.533            471.567           
57.5             809.338            455.052           
57.5             750.618            515.608           
60               785.483            376.147           
60               915.769            313.756           
60               912.099            315.591           
60               910.264            304.581           
60               890.079            271.551           
60               835.028            236.686           
60               783.648            245.861           
60               757.958            288.066           
60               776.308            346.786           
62.5             746.948            170.625           
62.5             869.894            124.750           
62.5             866.224            113.740           
62.5             860.719            99.060            
62.5             842.368            60.524            
62.5             790.988            20.154            
62.5             756.123            36.669            
62.5             743.278            144.935           
65               752.453            -75.267           
65               858.884            -122.977          
65               853.379            -119.307          
65               868.059            -150.502          
65               805.668            -198.213          
65               704.742            -139.492          
65               710.247            -104.627          
65               713.918            -89.947           
67.5             506.561            -209.223          
67.5             625.837            -187.203          
67.5             618.497            -200.048          
67.5             596.477            -231.243          
67.5             510.231            -240.418          
67.5             502.891            -242.253          
67.5             502.891            -214.728          
70               293.699            -185.368          
70               363.430            -231.243          
70               361.595            -236.748          
70               335.905            -240.418          
70               266.174            -238.583          
70               258.834            -242.253          
70               269.844            -222.068          
70               275.349            -214.728          
70               282.689            -201.883          
72.5             123.043            -141.327          
72.5             222.134            -167.017          
72.5             231.309            -185.368          
72.5             222.134            -196.378          
72.5             201.949            -223.903          
72.5             108.363            -225.738          
72.5             79.003             -200.048          
72.5             73.498             -172.523          
75               -116.029           -90.817           
75               48.877             -102.190          
75               -21.255            -164.741          
75               -93.284            -187.487          
75               -127.402           -181.800          
75               -153.939           -145.786          
75               -157.730           -126.831          
75               -133.089           -100.294          
77.5             -442.052           64.612            
77.5             -182.371           -20.684           
77.5             -182.371           -26.371           
77.5             -188.058           -32.057           
77.5             -201.326           -56.698           
77.5             -510.289           -92.713           
77.5             -548.199           -71.862           
77.5             -487.543           3.957             
80               -561.467           312.920           
80               -447.738           161.282           
80               -451.529           155.595           
80               -542.512           148.013           
80               -641.077           134.745           
80               -660.032           197.296           
80               -614.540           295.861           
80               -569.049           314.816           
82.5             -650.555           538.482           
82.5             -546.303           430.440           
82.5             -550.094           426.649           
82.5             -667.614           356.516           
82.5             -728.269           348.934           
82.5             -705.524           481.618           
85               -170.998           822.804           
85               -36.419            714.762           
85               -207.012           707.180           
85               -203.221           781.104           
87.5             37.505             951.697           
87.5             168.293            860.714           
87.5             143.651            792.477           
87.5             -15.569            767.835           
87.5             -36.419            796.268           
87.5             -15.569            894.832           
90               -263.877           832.282           
90               -354.860           529.005           
90               -364.337           523.318           
90               -398.456           523.318           
90               -430.679           519.527           
90               -529.244           544.169           
90               -593.690           682.539           
90               -574.735           726.135           
90               -398.456           855.027           
92.5             448.758            686.264           
92.5             514.819            717.459           
92.5             542.344            755.994           
92.5             463.265            925.535           
92.5             339.427            951.585           
92.5             243.585            737.621           
92.5             276.267            633.049           
92.5             353.337            603.688           
95               609.471            -40.234           