[TITLE]
;;Project Title/Notes
Scenario Run :  EXPORTEDLID

[OPTIONS]
;;Option             Value
FLOW_UNITS           CFS
INFILTRATION         GREEN_AMPT
FLOW_ROUTING         DYNWAVE
LINK_OFFSETS         DEPTH
MIN_SLOPE            0
ALLOW_PONDING        NO
SKIP_STEADY_STATE    NO

IGNORE_GROUNDWATER   YES
START_DATE           01/01/2002
START_TIME           00:00:00
REPORT_START_DATE    01/01/2002
REPORT_START_TIME    00:00:00
END_DATE             01/01/2002
END_TIME             08:00:00
SWEEP_START          01/01
SWEEP_END            12/31
DRY_DAYS             5.000000
REPORT_STEP          00:05:00
WET_STEP             00:01:00
DRY_STEP             01:00:00
ROUTING_STEP         0:00:30 

INERTIAL_DAMPING     NONE
NORMAL_FLOW_LIMITED  SLOPE
FORCE_MAIN_EQUATION  H-W
VARIABLE_STEP        0.75
LENGTHENING_STEP     30
MIN_SURFAREA         0
MAX_TRIALS           8
HEAD_TOLERANCE       0.000100
SYS_FLOW_TOL         5
LAT_FLOW_TOL         5
MINIMUM_STEP         0
THREADS              1

[EVAPORATION]
;;Data Source    Parameters
;;-------------- ----------------
CONSTANT         0.100000
DRY_ONLY         NO

[RAINGAGES]
;;Name           Format    Interval SCF      Source    
;;-------------- --------- ------ ------ ----------
RGAGE1           CUMULATIVE 0.083333 1.000000 TIMESERIES SCS38HOUR       

[SUBCATCHMENTS]
;;Name           Rain Gage        Outlet           Area     %Imperv  Width    %Slope   CurbLen  SnowPack        
;;-------------- ---------------- ---------------- -------- -------- -------- -------- -------- ----------------
; New Subcatchment
1                RGAGE1           2                80.165289 30.636028 384.000000 0.977130 0.000000                 
10               RGAGE1           9                43.527763 47.008143 199.670808 1.638950 0.000000                 
; New Subcatchment
2                RGAGE1           6                39.462810 20.526482 246.000000 1.512797 0.000000                 
; New Subcatchment
3                RGAGE1           5                41.838843 2.736716 342.855085 1.448952 0.000000                 
; New Subcatchment
4                RGAGE1           G                37.381715 17.354296 188.648971 3.274822 0.000000                 
; New Subcatchment
5                RGAGE1           E                49.070248 12.634439 318.930366 1.769457 0.000000                 
; New Subcatchment
6                RGAGE1           E                87.190083 29.380020 474.507376 1.797223 0.000000                 
; New Subcatchment
7                RGAGE1           8                208.923486 35.191371 555.321092 1.193477 0.000000                 
; New Subcatchment
8                RGAGE1           A                113.636364 21.775178 429.633308 4.796202 0.000000                 
; New Subcatchment
9                RGAGE1           G                39.426002 23.076933 313.476798 2.472509 0.000000                 

[SUBAREAS]
;;Subcatchment   N-Imperv   N-Perv     S-Imperv   S-Perv     PctZero    RouteTo    PctRouted 
;;-------------- ---------- ---------- ---------- ---------- ---------- ---------- ----------
1                0.015000   0.050000   0.050000   0.250000   25.000000  OUTLET    
10               0.015000   0.050000   0.050000   0.250000   25.000000  OUTLET    
2                0.015000   0.050000   0.050000   0.250000   25.000000  OUTLET    
3                0.015000   0.050000   0.050000   0.250000   25.000000  OUTLET    
4                0.015000   0.050000   0.050000   0.250000   25.000000  OUTLET    
5                0.015000   0.050000   0.050000   0.250000   25.000000  OUTLET    
6                0.015000   0.050000   0.050000   0.250000   25.000000  OUTLET    
7                0.015000   0.050000   0.050000   0.250000   25.000000  OUTLET    
8                0.015000   0.050000   0.050000   0.250000   25.000000  OUTLET    
9                0.015000   0.050000   0.050000   0.250000   25.000000  OUTLET    

[INFILTRATION]
;;Subcatchment   Suction    Ksat       IMD       
;;-------------- ---------- ---------- ----------
1                4.575037   0.393759   0.250000  
10               3.680000   0.555000   0.250000  
2                4.157443   0.289361   0.250000  
3                2.000000   0.500000   0.250000  
4                4.831638   0.465951   0.250000  
5                3.499792   0.481146   0.250000  
6                2.731475   0.457041   0.250000  
7                4.172711   0.646492   0.250000  
8                3.689718   0.445680   0.250000  
9                4.351026   0.416365   0.250000  

[LID_CONTROLS]
;;Name           Type/Layer Parameters
;;-------------- ---------- ----------
SANDFILTER       BC
SANDFILTER       SURFACE    0.000000   0.000000   0.100000   1.000000   5.000000  
SANDFILTER       SOIL       12.000000  0.500000   0.200000   0.100000   0.500000   10.000000  3.500000  
SANDFILTER       STORAGE    12.000000  0.750000   0.500000   0.000000  
SANDFILTER       DRAIN      0.000000   0.500000   6.000000   6.000000  

BIORETENTION     PP
BIORETENTION     SURFACE    12.000000  0.250000   0.100000   1.000000   5.000000  
BIORETENTION     PAVEMENT   4.000000   0.150000   0.000000   100.000000 0.000000  
BIORETENTION     STORAGE    12.000000  0.750000   0.500000   0.000000  
BIORETENTION     DRAIN      0.000000   0.500000   6.000000   6.000000  

GREENROOF        GR
GREENROOF        SURFACE    0.000000   0.000000   0.100000   1.000000   5.000000  
GREENROOF        SOIL       12.000000  0.500000   0.200000   0.100000   0.500000   10.000000  3.500000  
GREENROOF        DRAINMAT   3.000000   0.500000   0.100000  

PAVEMENT         PP
PAVEMENT         SURFACE    0.000000   0.000000   0.100000   1.000000   5.000000  
PAVEMENT         PAVEMENT   4.000000   0.150000   0.000000   100.000000 0.000000  
PAVEMENT         STORAGE    12.000000  0.750000   0.500000   0.000000  
PAVEMENT         DRAIN      0.000000   0.500000   6.000000   6.000000  

TRENCH           IT
TRENCH           SURFACE    6.000000   0.250000   0.100000   1.000000   5.000000  
TRENCH           STORAGE    12.000000  0.750000   0.500000   0.000000  
TRENCH           DRAIN      1.000000   0.500000   6.000000   6.000000  

SWALE            VS
SWALE            SURFACE    1.000000   0.400000   0.100000   1.000000   5.000000  

RB               RB
RB               STORAGE    12.000000  0.750000   0.500000   0.000000  
RB               DRAIN      0.000000   0.500000   6.000000   6.000000  

SAND             IT
SAND             SURFACE    0.000000   0.000000   0.100000   1.000000   5.000000  
SAND             STORAGE    12.000000  0.750000   0.500000   0.000000  
SAND             DRAIN      0.000000   0.500000   6.000000   6.000000  

GREENROOF_2      GR
GREENROOF_2      SURFACE    0.000000   0.000000   0.100000   1.000000   5.000000  
GREENROOF_2      SOIL       9.000000   0.500000   0.200000   0.100000   0.500000   10.000000  3.500000  
GREENROOF_2      DRAINMAT   3.000000   0.500000   0.100000  

GREENROOF_4      GR
GREENROOF_4      SURFACE    0.000000   0.000000   0.100000   1.000000   5.000000  
GREENROOF_4      SOIL       15.000000  0.500000   0.200000   0.100000   0.500000   10.000000  3.500000  
GREENROOF_4      DRAINMAT   3.000000   0.500000   0.100000  

GREENROOF_6      GR
GREENROOF_6      SURFACE    0.000000   0.000000   0.100000   1.000000   5.000000  
GREENROOF_6      SOIL       1.000000   0.500000   0.200000   0.100000   0.500000   10.000000  3.500000  
GREENROOF_6      DRAINMAT   3.000000   0.500000   0.100000  

GREENROOF_9      GR
GREENROOF_9      SURFACE    0.000000   0.000000   0.100000   1.000000   5.000000  
GREENROOF_9      SOIL       15.000000  0.500000   0.200000   0.100000   0.500000   10.000000  3.500000  
GREENROOF_9      DRAINMAT   3.000000   0.500000   0.100000  

GREENROOF_11     GR
GREENROOF_11     SURFACE    0.000000   0.000000   0.100000   1.000000   5.000000  
GREENROOF_11     SOIL       5.000000   0.500000   0.200000   0.100000   0.500000   10.000000  3.500000  
GREENROOF_11     DRAINMAT   3.000000   0.500000   0.100000  

GREENROOF_13     GR
GREENROOF_13     SURFACE    0.000000   0.000000   0.100000   1.000000   5.000000  
GREENROOF_13     SOIL       3.000000   0.500000   0.200000   0.100000   0.500000   10.000000  3.500000  
GREENROOF_13     DRAINMAT   3.000000   0.500000   0.100000  

GREENROOF_15     GR
GREENROOF_15     SURFACE    0.000000   0.000000   0.100000   1.000000   5.000000  
GREENROOF_15     SOIL       7.000000   0.500000   0.200000   0.100000   0.500000   10.000000  3.500000  
GREENROOF_15     DRAINMAT   3.000000   0.500000   0.100000  

GREENROOF_16     GR
GREENROOF_16     SURFACE    0.000000   0.000000   0.100000   1.000000   5.000000  
GREENROOF_16     SOIL       5.000000   0.500000   0.200000   0.100000   0.500000   10.000000  3.500000  
GREENROOF_16     DRAINMAT   3.000000   0.500000   0.100000  

GREENROOF_2A     GR
GREENROOF_2A     SURFACE    0.000000   0.000000   0.100000   1.000000   5.000000  
GREENROOF_2A     SOIL       1.000000   0.500000   0.200000   0.100000   0.500000   10.000000  3.500000  
GREENROOF_2A     DRAINMAT   3.000000   0.500000   0.100000  

GREENROOF_4A     GR
GREENROOF_4A     SURFACE    0.000000   0.000000   0.100000   1.000000   5.000000  
GREENROOF_4A     SOIL       1.000000   0.500000   0.200000   0.100000   0.500000   10.000000  3.500000  
GREENROOF_4A     DRAINMAT   3.000000   0.500000   0.100000  

GREENROOF_6A     GR
GREENROOF_6A     SURFACE    0.000000   0.000000   0.100000   1.000000   5.000000  
GREENROOF_6A     SOIL       15.000000  0.500000   0.200000   0.100000   0.500000   10.000000  3.500000  
GREENROOF_6A     DRAINMAT   3.000000   0.500000   0.100000  

GREENROOF_9A     GR
GREENROOF_9A     SURFACE    0.000000   0.000000   0.100000   1.000000   5.000000  
GREENROOF_9A     SOIL       11.000000  0.500000   0.200000   0.100000   0.500000   10.000000  3.500000  
GREENROOF_9A     DRAINMAT   3.000000   0.500000   0.100000  

GREENROOF_11A    GR
GREENROOF_11A    SURFACE    0.000000   0.000000   0.100000   1.000000   5.000000  
GREENROOF_11A    SOIL       2.000000   0.500000   0.200000   0.100000   0.500000   10.000000  3.500000  
GREENROOF_11A    DRAINMAT   3.000000   0.500000   0.100000  

GREENROOF_13A    GR
GREENROOF_13A    SURFACE    0.000000   0.000000   0.100000   1.000000   5.000000  
GREENROOF_13A    SOIL       8.000000   0.500000   0.200000   0.100000   0.500000   10.000000  3.500000  
GREENROOF_13A    DRAINMAT   3.000000   0.500000   0.100000  

GREENROOF_15A    GR
GREENROOF_15A    SURFACE    0.000000   0.000000   0.100000   1.000000   5.000000  
GREENROOF_15A    SOIL       6.000000   0.500000   0.200000   0.100000   0.500000   10.000000  3.500000  
GREENROOF_15A    DRAINMAT   3.000000   0.500000   0.100000  

GREENROOF_16A    GR
GREENROOF_16A    SURFACE    0.000000   0.000000   0.100000   1.000000   5.000000  
GREENROOF_16A    SOIL       1.000000   0.500000   0.200000   0.100000   0.500000   10.000000  3.500000  
GREENROOF_16A    DRAINMAT   3.000000   0.500000   0.100000  

GREENROOF_10     GR
GREENROOF_10     SURFACE    0.000000   0.000000   0.100000   1.000000   5.000000  
GREENROOF_10     SOIL       8.000000   0.500000   0.200000   0.100000   0.500000   10.000000  3.500000  
GREENROOF_10     DRAINMAT   3.000000   0.500000   0.100000  

GREENROOF_11B    GR
GREENROOF_11B    SURFACE    0.000000   0.000000   0.100000   1.000000   5.000000  
GREENROOF_11B    SOIL       3.000000   0.500000   0.200000   0.100000   0.500000   10.000000  3.500000  
GREENROOF_11B    DRAINMAT   3.000000   0.500000   0.100000  

GREENROOF_12     GR
GREENROOF_12     SURFACE    0.000000   0.000000   0.100000   1.000000   5.000000  
GREENROOF_12     SOIL       5.000000   0.500000   0.200000   0.100000   0.500000   10.000000  3.500000  
GREENROOF_12     DRAINMAT   3.000000   0.500000   0.100000  

GREENROOF_13B    GR
GREENROOF_13B    SURFACE    0.000000   0.000000   0.100000   1.000000   5.000000  
GREENROOF_13B    SOIL       1.000000   0.500000   0.200000   0.100000   0.500000   10.000000  3.500000  
GREENROOF_13B    DRAINMAT   3.000000   0.500000   0.100000  

GREENROOF_14     GR
GREENROOF_14     SURFACE    0.000000   0.000000   0.100000   1.000000   5.000000  
GREENROOF_14     SOIL       10.000000  0.500000   0.200000   0.100000   0.500000   10.000000  3.500000  
GREENROOF_14     DRAINMAT   3.000000   0.500000   0.100000  

GREENROOF_15B    GR
GREENROOF_15B    SURFACE    0.000000   0.000000   0.100000   1.000000   5.000000  
GREENROOF_15B    SOIL       15.000000  0.500000   0.200000   0.100000   0.500000   10.000000  3.500000  
GREENROOF_15B    DRAINMAT   3.000000   0.500000   0.100000  

GREENROOF_16B    GR
GREENROOF_16B    SURFACE    0.000000   0.000000   0.100000   1.000000   5.000000  
GREENROOF_16B    SOIL       12.000000  0.500000   0.200000   0.100000   0.500000   10.000000  3.500000  
GREENROOF_16B    DRAINMAT   3.000000   0.500000   0.100000  

GREENROOF_17     GR
GREENROOF_17     SURFACE    0.000000   0.000000   0.100000   1.000000   5.000000  
GREENROOF_17     SOIL       6.000000   0.500000   0.200000   0.100000   0.500000   10.000000  3.500000  
GREENROOF_17     DRAINMAT   3.000000   0.500000   0.100000  

PPAVEMENT        PP
PPAVEMENT        SURFACE    2.000000   0.050000   0.100000   1.000000   5.000000  
PPAVEMENT        PAVEMENT   4.000000   0.150000   0.650000   10.000000  0.000000  
PPAVEMENT        STORAGE    12.000000  0.750000   0.500000   0.000000  
PPAVEMENT        DRAIN      1.000000   0.500000   6.000000   6.000000  

GREENROOF_10A    GR
GREENROOF_10A    SURFACE    0.000000   0.000000   0.100000   1.000000   5.000000  
GREENROOF_10A    SOIL       3.000000   0.500000   0.200000   0.100000   0.500000   10.000000  3.500000  
GREENROOF_10A    DRAINMAT   3.000000   0.500000   0.100000  

GREENROOF_11C    BC
GREENROOF_11C    SURFACE    0.000000   0.000000   0.100000   1.000000   5.000000  
GREENROOF_11C    SOIL       3.000000   0.500000   0.200000   0.100000   0.500000   10.000000  3.500000  
GREENROOF_11C    STORAGE    12.000000  0.750000   0.500000   0.000000  
GREENROOF_11C    DRAIN      0.000000   0.500000   6.000000   6.000000  

GREENROOF_12A    GR
GREENROOF_12A    SURFACE    0.000000   0.000000   0.100000   1.000000   5.000000  
GREENROOF_12A    SOIL       10.000000  0.500000   0.200000   0.100000   0.500000   10.000000  3.500000  
GREENROOF_12A    DRAINMAT   3.000000   0.500000   0.100000  

GREENROOF_13C    GR
GREENROOF_13C    SURFACE    0.000000   0.000000   0.100000   1.000000   5.000000  
GREENROOF_13C    SOIL       3.000000   0.500000   0.200000   0.100000   0.500000   10.000000  3.500000  
GREENROOF_13C    DRAINMAT   3.000000   0.500000   0.100000  

GREENROOF_14A    GR
GREENROOF_14A    SURFACE    0.000000   0.000000   0.100000   1.000000   5.000000  
GREENROOF_14A    SOIL       11.000000  0.500000   0.200000   0.100000   0.500000   10.000000  3.500000  
GREENROOF_14A    DRAINMAT   3.000000   0.500000   0.100000  

GREENROOF_15C    GR
GREENROOF_15C    SURFACE    0.000000   0.000000   0.100000   1.000000   5.000000  
GREENROOF_15C    SOIL       3.000000   0.500000   0.200000   0.100000   0.500000   10.000000  3.500000  
GREENROOF_15C    DRAINMAT   3.000000   0.500000   0.100000  

GREENROOF_16C    GR
GREENROOF_16C    SURFACE    0.000000   0.000000   0.100000   1.000000   5.000000  
GREENROOF_16C    SOIL       7.000000   0.500000   0.200000   0.100000   0.500000   10.000000  3.500000  
GREENROOF_16C    DRAINMAT   3.000000   0.500000   0.100000  

GREENROOF_17A    GR
GREENROOF_17A    SURFACE    0.000000   0.000000   0.100000   1.000000   5.000000  
GREENROOF_17A    SOIL       2.000000   0.500000   0.200000   0.100000   0.500000   10.000000  3.500000  
GREENROOF_17A    DRAINMAT   3.000000   0.500000   0.100000  

GREENROOF_10B    GR
GREENROOF_10B    SURFACE    0.000000   0.000000   0.100000   1.000000   5.000000  
GREENROOF_10B    SOIL       22.000000  0.500000   0.200000   0.100000   0.500000   10.000000  3.500000  
GREENROOF_10B    DRAINMAT   3.000000   0.500000   0.100000  

GREENROOF_11D    GR
GREENROOF_11D    SURFACE    0.000000   0.000000   0.100000   1.000000   5.000000  
GREENROOF_11D    SOIL       8.000000   0.500000   0.200000   0.100000   0.500000   10.000000  3.500000  
GREENROOF_11D    DRAINMAT   3.000000   0.500000   0.100000  

GREENROOF_12B    GR
GREENROOF_12B    SURFACE    0.000000   0.000000   0.100000   1.000000   5.000000  
GREENROOF_12B    SOIL       1.000000   0.500000   0.200000   0.100000   0.500000   10.000000  3.500000  
GREENROOF_12B    DRAINMAT   3.000000   0.500000   0.100000  

GREENROOF_13D    GR
GREENROOF_13D    SURFACE    0.000000   0.000000   0.100000   1.000000   5.000000  
GREENROOF_13D    SOIL       9.000000   0.500000   0.200000   0.100000   0.500000   10.000000  3.500000  
GREENROOF_13D    DRAINMAT   3.000000   0.500000   0.100000  

GREENROOF_14B    GR
GREENROOF_14B    SURFACE    0.000000   0.000000   0.100000   1.000000   5.000000  
GREENROOF_14B    SOIL       1.000000   0.500000   0.200000   0.100000   0.500000   10.000000  3.500000  
GREENROOF_14B    DRAINMAT   3.000000   0.500000   0.100000  

GREENROOF_15D    GR
GREENROOF_15D    SURFACE    0.000000   0.000000   0.100000   1.000000   5.000000  
GREENROOF_15D    SOIL       21.000000  0.500000   0.200000   0.100000   0.500000   10.000000  3.500000  
GREENROOF_15D    DRAINMAT   3.000000   0.500000   0.100000  

GREENROOF_16D    GR
GREENROOF_16D    SURFACE    0.000000   0.000000   0.100000   1.000000   5.000000  
GREENROOF_16D    SOIL       1.000000   0.500000   0.200000   0.100000   0.500000   10.000000  3.500000  
GREENROOF_16D    DRAINMAT   3.000000   0.500000   0.100000  

GREENROOF_17B    GR
GREENROOF_17B    SURFACE    0.000000   0.000000   0.100000   1.000000   5.000000  
GREENROOF_17B    SOIL       22.000000  0.500000   0.200000   0.100000   0.500000   10.000000  3.500000  
GREENROOF_17B    DRAINMAT   3.000000   0.500000   0.100000  

GREENROOF_10C    GR
GREENROOF_10C    SURFACE    0.000000   0.000000   0.100000   1.000000   5.000000  
GREENROOF_10C    SOIL       5.000000   0.500000   0.200000   0.100000   0.500000   10.000000  3.500000  
GREENROOF_10C    DRAINMAT   3.000000   0.500000   0.100000  

GREENROOF_11E    GR
GREENROOF_11E    SURFACE    0.000000   0.000000   0.100000   1.000000   5.000000  
GREENROOF_11E    SOIL       1.000000   0.500000   0.200000   0.100000   0.500000   10.000000  3.500000  
GREENROOF_11E    DRAINMAT   3.000000   0.500000   0.100000  

GREENROOF_12C    GR
GREENROOF_12C    SURFACE    0.000000   0.000000   0.100000   1.000000   5.000000  
GREENROOF_12C    SOIL       2.000000   0.500000   0.200000   0.100000   0.500000   10.000000  3.500000  
GREENROOF_12C    DRAINMAT   3.000000   0.500000   0.100000  

GREENROOF_13E    GR
GREENROOF_13E    SURFACE    0.000000   0.000000   0.100000   1.000000   5.000000  
GREENROOF_13E    SOIL       11.000000  0.500000   0.200000   0.100000   0.500000   10.000000  3.500000  
GREENROOF_13E    DRAINMAT   3.000000   0.500000   0.100000  

GREENROOF_14C    GR
GREENROOF_14C    SURFACE    0.000000   0.000000   0.100000   1.000000   5.000000  
GREENROOF_14C    SOIL       10.000000  0.500000   0.200000   0.100000   0.500000   10.000000  3.500000  
GREENROOF_14C    DRAINMAT   3.000000   0.500000   0.100000  

GREENROOF_15E    GR
GREENROOF_15E    SURFACE    0.000000   0.000000   0.100000   1.000000   5.000000  
GREENROOF_15E    SOIL       5.000000   0.500000   0.200000   0.100000   0.500000   10.000000  3.500000  
GREENROOF_15E    DRAINMAT   3.000000   0.500000   0.100000  

GREENROOF_16E    GR
GREENROOF_16E    SURFACE    0.000000   0.000000   0.100000   1.000000   5.000000  
GREENROOF_16E    SOIL       10.000000  0.500000   0.200000   0.100000   0.500000   10.000000  3.500000  
GREENROOF_16E    DRAINMAT   3.000000   0.500000   0.100000  

GREENROOF_17C    GR
GREENROOF_17C    SURFACE    0.000000   0.000000   0.100000   1.000000   5.000000  
GREENROOF_17C    SOIL       8.000000   0.500000   0.200000   0.100000   0.500000   10.000000  3.500000  
GREENROOF_17C    DRAINMAT   3.000000   0.500000   0.100000  

GREENROOF_10D    GR
GREENROOF_10D    SURFACE    0.000000   0.000000   0.100000   1.000000   5.000000  
GREENROOF_10D    SOIL       10.000000  0.500000   0.200000   0.100000   0.500000   10.000000  3.500000  
GREENROOF_10D    DRAINMAT   3.000000   0.500000   0.100000  

GREENROOF_11F    GR
GREENROOF_11F    SURFACE    0.000000   0.000000   0.100000   1.000000   5.000000  
GREENROOF_11F    SOIL       5.000000   0.500000   0.200000   0.100000   0.500000   10.000000  3.500000  
GREENROOF_11F    DRAINMAT   3.000000   0.500000   0.100000  

GREENROOF_12D    GR
GREENROOF_12D    SURFACE    0.000000   0.000000   0.100000   1.000000   5.000000  
GREENROOF_12D    SOIL       21.000000  0.500000   0.200000   0.100000   0.500000   10.000000  3.500000  
GREENROOF_12D    DRAINMAT   3.000000   0.500000   0.100000  

GREENROOF_13F    GR
GREENROOF_13F    SURFACE    0.000000   0.000000   0.100000   1.000000   5.000000  
GREENROOF_13F    SOIL       19.000000  0.500000   0.200000   0.100000   0.500000   10.000000  3.500000  
GREENROOF_13F    DRAINMAT   3.000000   0.500000   0.100000  

GREENROOF_14D    GR
GREENROOF_14D    SURFACE    0.000000   0.000000   0.100000   1.000000   5.000000  
GREENROOF_14D    SOIL       12.000000  0.500000   0.200000   0.100000   0.500000   10.000000  3.500000  
GREENROOF_14D    DRAINMAT   3.000000   0.500000   0.100000  

GREENROOF_15F    GR
GREENROOF_15F    SURFACE    0.000000   0.000000   0.100000   1.000000   5.000000  
GREENROOF_15F    SOIL       25.000000  0.500000   0.200000   0.100000   0.500000   10.000000  3.500000  
GREENROOF_15F    DRAINMAT   3.000000   0.500000   0.100000  

GREENROOF_16F    GR
GREENROOF_16F    SURFACE    0.000000   0.000000   0.100000   1.000000   5.000000  
GREENROOF_16F    SOIL       15.000000  0.500000   0.200000   0.100000   0.500000   10.000000  3.500000  
GREENROOF_16F    DRAINMAT   3.000000   0.500000   0.100000  

GREENROOF_17D    GR
GREENROOF_17D    SURFACE    0.000000   0.000000   0.100000   1.000000   5.000000  
GREENROOF_17D    SOIL       23.000000  0.500000   0.200000   0.100000   0.500000   10.000000  3.500000  
GREENROOF_17D    DRAINMAT   3.000000   0.500000   0.100000  

[LID_USAGE]
;;Subcatchment   LID Process      Number  Area       Width      InitSat    FromImp    ToPerv     RptFile                  DrainTo         
;;-------------- ---------------- ------- ---------- ---------- ---------- ---------- ---------- ------------------------ ----------------
1                TRENCH           2       1746.000000 115.000000 0.000000   5.816898   1         
1                GREENROOF        13      26948.000000 295.000000 0.000000   89.778785  1         
10               GREENROOF_2      2       810.000000 455.000000 0.000000   15.463918  1         
10               TRENCH           10      3694.000000 110.000000 0.000000   70.523100  1         
2                GREENROOF_4      12      38.000000  395.000000 0.000000   0.209413   1         
2                TRENCH           20      13373.000000 20.000000  0.000000   73.696682  1         
4                GREENROOF_6      21      64.000000  465.000000 0.000000   0.123385   1         
4                TRENCH           5       27577.805000 500.000000 0.000000   53.167158  1         
5                TRENCH           4       23438.805000 315.000000 0.000000   78.087703  1         
5                GREENROOF_9      15      6660.000000 210.000000 0.000000   12.839792  1         
6                TRENCH           20      28393.805000 270.000000 0.000000   94.595566  1         
6                GREENROOF_11     2       662.000000 440.000000 0.000000   1.276268   1         
7                TRENCH           7       12708.000000 50.000000  0.000000   42.337420  1         
7                GREENROOF_13     18      27912.805000 470.000000 0.000000   53.813004  1         
8                TRENCH           20      12868.000000 455.000000 0.000000   42.870469  1         
8                GREENROOF_15     5       19378.000000 155.000000 0.000000   37.358782  1         
9                GREENROOF_16     6       9715.000000 480.000000 0.000000   18.729516  1         
9                TRENCH           6       17385.000000 160.000000 0.000000   57.919110  1         

[AQUIFERS]
;;Name           Por    WP     FC     Ksat   Kslope Tslope ETu    ETs    Seep   Ebot   Egw    Umc    ETupat 
;;-------------- ------ ------ ------ ------ ------ ------ ------ ------ ------ ------ ------ ------ ------
AQUIFER-1        0.500000 0.150000 0.300000 10.000000 1.000000 15.000000 0.350000 0.350000 0.200000 0.000000 1.000000 0.250000       

[GROUNDWATER]
;;Subcatchment   Aquifer          Node             Esurf  A1     B1     A2     B2     A3     Dsw    Egwt   Ebot   Wgr    Umc   
;;-------------- ---------------- ---------------- ------ ------ ------ ------ ------ ------ ------ ------ ------ ------ ------
10               AQUIFER-1        G                5.000000 0.010000 1.000000 0.010000 1.000000 0.000000 2.000000 1.000000 0.000000 2.000000 0.150000
3                AQUIFER-1        G                5.000000 0.010000 1.000000 0.010000 1.000000 0.000000 2.000000 1.000000 0.000000 2.000000 0.150000

[JUNCTIONS]
;;Name           Elevation  MaxDepth   InitDepth  SurDepth   Aponded   
;;-------------- ---------- ---------- ---------- ---------- ----------
; New Junction
A                249.703000 5.000000   0.000000   0.000000   0.000000  
; New Junction
B                249.703000 5.000000   0.000000   0.000000   0.000000  
; New Junction
C                249.703000 5.000000   0.000000   0.000000   0.000000  
; New Junction
E                312.629000 5.000000   0.000000   0.000000   0.000000  
; New Junction
F                249.703000 5.000000   0.000000   0.000000   0.000000  
; New Junction
G                330.184000 5.000000   0.000000   0.000000   0.000000  

[OUTFALLS]
;;Name           Elevation  Type       Stage Data       Gated    Route To        
;;-------------- ---------- ---------- ---------------- -------- ----------------
; New Junction
OUTFALL          249.703000 FREE                        NO                       

[STORAGE]
;;Name           Elev.    MaxDepth   InitDepth  Shape      Curve Name/Params            N/A      Fevap    Psi      Ksat     IMD     
;;-------------- -------- ---------- ----------- ---------- ---------------------------- -------- --------          -------- --------
BMPSTORE         0.000000 5.000000   0.000000   FUNCTIONAL 555.000000  0.000000  0.000000 0.000000 1.000000 2.000000 1.000000 0.250000
; New Junction
D                249.703000 5.000000   0.000000   FUNCTIONAL 100.000000  0.000000  0.000000 0.000000 1.000000 4.000000 1.000000 0.250000

[CONDUITS]
;;Name           From Node        To Node          Length     Roughness  InOffset   OutOffset  InitFlow   MaxFlow   
;;-------------- ---------------- ---------------- ---------- ---------- ---------- ---------- ---------- ----------
1                B                A                53.479914  0.015000   0.000000   0.000000   0.000000   0.000000  
2                C                B                9.798969   0.015000   0.000000   0.000000   0.000000   0.000000  
3                A                OUTFALL          412.354480 0.015000   0.000000   0.000000   0.000000   0.000000  
4                E                D                153.251994 0.015000   0.000000   0.000000   0.000000   0.000000  
5                F                D                99.443561  0.015000   0.000000   0.000000   0.000000   0.000000  
6                G                D                233.854922 0.015000   0.000000   0.000000   0.000000   0.000000  
7                D                C                2.279425   0.015000   0.000000   0.000000   0.000000   0.000000  

[XSECTIONS]
;;Link           Shape        Geom1            Geom2      Geom3      Geom4      Barrels    Culvert   
;;-------------- ------------ ---------------- ---------- ---------- ---------- ---------- ----------
1                TRAPEZOIDAL  5.000000         1.000000   1.000000   1.000000   1          0         
2                TRAPEZOIDAL  5.000000         1.000000   1.000000   1.000000   1          0         
3                TRAPEZOIDAL  5.000000         1.000000   1.000000   1.000000   1          0         
4                TRAPEZOIDAL  5.000000         1.000000   1.000000   1.000000   1          0         
5                TRAPEZOIDAL  5.000000         1.000000   1.000000   1.000000   1          0         
6                TRAPEZOIDAL  5.000000         1.000000   1.000000   1.000000   1          0         
7                TRAPEZOIDAL  5.000000         1.000000   1.000000   1.000000   1          0         

[LOSSES]
;;Link           Kentry     Kexit      Kavg       Flap Gate  Seepage   
;;-------------- ---------- ---------- ---------- ---------- ----------
1                0.000000   0.000000   0.000000   NO         1.000000  
2                0.000000   0.000000   0.000000   NO         1.000000  
3                0.000000   0.000000   0.000000   NO         0.000000  
4                0.000000   0.000000   0.000000   NO         0.000000  
5                0.000000   0.000000   0.000000   NO         0.000000  
6                0.000000   0.000000   0.000000   NO         0.000000  
7                0.000000   0.000000   0.000000   NO         0.000000  

[CONTROLS]



[POLLUTANTS]
;;Name           Units  Crain      Cgw        Crdii      Kdecay     SnowOnly   Co-Pollutant     Co-Frac    Cdwf       Cinit     
;;-------------- ------ ---------- ---------- ---------- ---------- ---------- ---------------- ---------- ---------- ----------
TSS              MG/L   5.000000   0.000000   0.000000   0.000000   NO         *                0.000000   0.000000   0.000000  
TP               MG/L   0.100000   0.000000   0.000000   0.000000   NO         *                0.000000   0.000000   0.000000  

[LANDUSES]
;;               Sweeping   Fraction   Last      