[TITLE]
 Allen Watershed - 10yr/24hr Storm Event

[OPTIONS]
 FLOW_UNITS            CFS
 INFILTRATION          HORTON
 FLOW_ROUTING          DYNWAVE
 START_DATE            01/01/1995
 START_TIME            00:00:00
 REPORT_START_DATE     01/01/1995
 REPORT_START_TIME     00:00:00
 END_DATE              01/02/1995
 END_TIME              00:00:00
 REPORT_STEP           00:00:15
 WET_STEP              00:01:00
 DRY_STEP              00:24:00
 ROUTING_STEP          00:00:15
 ALLOW_PONDING         NO
 INERTIAL_DAMPING      PARTIAL
 VARIABLE_STEP         0.750000
 LENGTHENING_STEP      0.000000
 MIN_SURFAREA          0.000000
 NORMAL_FLOW_LIMITED   FROUDE
 SKIP_STEADY_STATE     NO
 IGNORE_RAINFALL       NO
 FORCE_MAIN_EQUATION   H-W
 LINK_OFFSETS          DEPTH
 COMPATIBILITY         5

[REPORT]
 INPUT YES
 CONTINUITY YES
 FLOWSTATS YES
 CONTROLS NO
 SUBCATCHMENTS ALL
 NODES ALL
 LINKS ALL

[RAINGAGES]
;;                 Rain      Recd.  Snow   Data       Source           Station    Rain  Start
;;Name             Type      Freq.  Catch  Source     Name             ID         Units Date
;;------------------------------------------------------------------------------------------------
  10YR~CONSTANT    VOLUME    0.25000 1.0    TIMESERIES RN#4             

[JUNCTIONS]
;;                 Invert     Max.       Init.      Surcharge  Ponded
;;Name             Elev.      Depth      Depth      Depth      Area
;;------------------------------------------------------------------------
  09204000D2       761.3      16.192     0         
  09204000D3       761.3      8.564      0         
  09204001R0       761.74     12.546     0         
  09204001D1       762.2      12.116     0         
  09204002R0       762.41     14.678     0         
  09204003R0       764.48     15.456     0         
  09204004R0       766.79     12.586     0         
  09204005R0       768.78     10.61      0         
  09204006R0       771.4      10.343     0         
  09292001R0       775.16     11.5       0         
  09292001D1       778.75     12.024     0         
  09292001D2       779.22     11.5       0         
  09292001D3       780.09     11         0         
  09292002R0       780.64     14.833     0         
  09292002D1       783.09     10.198     0         
  09292003R0       783.42     10.247     0         
  09292004R0       784.65     12.186     0         
  09292004D1       786.89     11.083     0         
  09292004D2       787.74     9.072      0         
  09292005R0       790.54     7.5        0         
  09292005D1       791.84     10.5       0         
  09292005D2       792.9      9.506      0         
  09292006R0       794.02     15.201     0         
  09292006D1       795        13.882     0         
  09292006D2       795.17     12.931     0         
  09294001R0       795.52     12.505     0         
  09294001D1       796.23     9.645      0         
  09294002R0       797.18     8.516      0         
  09294003R0       798.5      9.119      0         
  09294004R0       800.56     8.478      0         
  09294005R0       802.65     8.455      0         
  09294006R0       805.9      8.967      0         
  09294007R0       807.28     9.27       0         
  09294008R0       809.51     7.589      0         
  09321000D1       811.18     10.633     0         
  09321001R0       811.5      11.007     0         
  09321002R0       815.69     11.998     0         
  09321003R0       816.97     11.363     0         
  09321004R0       818.13     10.719     0         
  09321005R0       821.54     8.936      0         
  09321006R0       824.02     9.358      0         
  09321007R0       826.02     8.842      0         
  09321008R0       832.84     8.692      0         
  09324000D1       840.26     8          0         
  09324000D2       844.33     8.41       0         
  09324000D3       845.46     6.54       0         
  09324000D4       846.67     6.011      0         
  09324000D5       847.28     7          0         
  09324000D6       847.78     7          0         
  09324000D7       849.84     5.16       0         
  09324000D8       849.88     5.8        0         
  09324000D9       850.21     8.5        0         
  09324000DA       850.45     7.7        0         
  09324000DB       854.26     22.052     0         
  09324001R0       856.21     20.418     0         
  09324001D1       859.7      14.659     0         
  09324002R0       862.76     10.669     0         
  09324003R0       868        14.135     0         
  09323001R0       870.41     13.365     0         
  09323002R0       871.73     21.249     0         
  09323003R0       877.88     17.918     0         
  09323004R0       879.18     20.895     0         
  09323005R0       881.47     21.74      0         
  09323006R0       890        11.429     0         
  09323007R0       895.19     8.481      0         
  09323008R0       900.4      8.005      0         
  09314001R0       902.02     9.803      0         
  09314002R0       902.18     10.809     0         
  09324004R0       868.3      4.685      0         
  09323009R0       868.7      12.971     0         
  09323010R0       869.48     19.266     0         
  09323011R0       872.51     21.328     0         
  09323012R0       876.02     19.27      0         
  09323013R0       879.12     21.885     0         
  09323014R0       881.16     17.229     0         
  09323015R0       884.15     16.581     0         
  09322001R0       885.46     7.15       0         
  09322002R0       886.68     7.116      0         
  09322003R0       887.16     8.114      0         
  09322004R0       890.14     7.097      0         
  09292007R0       785.72     10.311     0         
  09292008R0       790.4      15.238     0         
  09292009R0       802.01     10.935     0         
  09292010R0       813.03     14.595     0         
  09203001R0       825.51     9.826      0         
  09203002R0       836        6.68       0         
  09203003R0       841        10.055     0         
  09203004R0       846.4      7.992      0         
  09203005R0       849.5      6.166      0         
  09203006R0       852.76     7.7        0         
  09203007R0       857.44     8.024      0         
  09203008R0       858.57     12.698     0         
  09203009R0       861.9      13.401     0         
  09203010R0       868.38     15.487     0         
  09203011R0       870.06     16.775     0         
  09203012R0       877.53     16.487     0         
  09203013R0       884.22     16.593     0         
  09301002R0       831        5.959      0         
  09301003R0       831.78     8.353      0         
  09301004R0       837.21     9.009      0         
  09301005R0       838.5      8.718      0         
  09301006R0       842.31     13.687     0         
  09301007R0       847.49     12.878     0         
  09194001R0       848.31     12.576     0         
  09194002R0       855.18     6.028      0         
  09194003R0       855.71     7.157      0         
  09194004R0       856.05     7.471      0         
  09194005R0       856.51     5.986      0         
  09194006R0       857.18     14.681     0         
  09194007R0       857.77     14.694     0         
  09194008R0       859.07     14.639     0         
  09194009R0       860.64     15.415     0         
  09194010R0       860.92     13.31      0         
  09194011R0       862.94     10.017     0         
  09194012R0       863.31     9.999      0         
  09194013R0       864.89     10.711     0         
  09194014R0       865        9.498      0         
  09194015R0       871.61     6.254      0         
  09194016R0       873.73     6.671      0         
  09194017R0       877.15     8.518      0         
  09292011R0       804.51     5.223      0         
  09292012R0       810.04     18.433     0         
  09301008R0       822        7.072      0         
  09301009R0       825.75     24.558     0         
  09301010R0       830.39     8.759      0         
  09301010D1       834.76     7.846      0         
  09301011R0       843.49     24.255     0         
  09301012R0       860        9.738      0         
  09301013R0       866        6.5        0         
  09301014R0       868        23.504     0         
  09302001R0       875        17.577     0         
  09302002R0       877.69     11.979     0         
  09302003R0       885.55     13.224     0         
  09302004R0       888.61     8.279      0         
  09302005R0       890.01     6.539      0         
  09302006R0       891.61     9.507      0         
  09302007R0       892.02     14.21      0         
  09302008R0       892.14     25.909     0         
  09302009R0       892.37     35.693     0         
  09302010R0       892.46     35.481     0         
  09302011R0       893.7      17.557     0         
  09302012R0       893.76     16.128     0         
  09302013R0       896.9      11.221     0         
  09302014R0       900.95     11.923     0         
  09193001R0       911        12.268     0         
  09193002R0       911.6      11.462     0         
  09193003R0       912.85     11.334     0         
  09193004R0       913.32     9.722      0         
  09193005R0       913.94     10.012     0         
  09302015R0       893.87     15.679     0         
  09302016R0       894.12     8.94       0         
  09302017R0       894.54     9.646      0         
  09251001R0       900.85     17.692     0         
  09251002R0       904.75     21.165     0         
  09292013R0       793.5      11.21      0         
  09292014R0       794.69     11.683     0         
  09292015R0       800.12     9.219      0         
  09292016R0       809.35     9.413      0         
  09292017R0       811.65     11.836     0         
  09301015R0       817.88     12.214     0         
  09304001R0       824.6      5.719      0         
  09304002R0       826.6      8          0         
  09304002D1       829.02     8          0         
  09304003R0       836.27     13.383     0         
  09304004R0       851.8      26.141     0         
  09304005R0       853.57     30.731     0         
  09304006R0       856.7      25.883     0         
  09304007R0       860.5      21.108     0         
  09304008R0       860.59     11.168     0         
  09304009R0       861.76     10.381     0         
  09304010R0       866.55     9.711      0         
  09303001R0       874.39     13.506     0         
  09303002R0       875.9      17.971     0         
  09303003R0       877.02     15.514     0         
  09303004R0       879.43     10.18      0         
  09303005R0       883.61     8.998      0         
  09303006R0       885.06     9.541      0         
  09303007R0       888.56     8.469      0         
  09303008R0       890.04     8.227      0         
  09303009R0       892        8.231      0         
  09303010R0       894.35     9.259      0         
  09303011R0       894.71     9.34       0         
  09303012R0       900.06     17.857     0         
  09303013R0       901.39     15.985     0         
  09303014R0       906.51     17.049     0         
  09303015R0       908.35     13.986     0         
  09303016R0       909.97     13.938     0         
  09303017R0       910.65     11.946     0         
  09294009R0       797.13     11.345     0         
  09294010R0       798.85     8.747      0         
  09294011R0       799.65     8.814      0         
  09294012R0       804.23     5.895      0         
  09293001R0       809.87     10.753     0         
  09293002R0       812.3      5.203      0         
  09293003R0       813.47     8.419      0         
  09293004R0       814.59     9.972      0         
  09293005R0       818.02     12.202     0         
  09293006R0       822.35     9.344      0         
  09293007R0       829        20.503     0         
  09293008R0       836.45     9.283      0         
  09293009R0       837.28     8.649      0         
  09293010R0       843.2      15.646     0         
  09293011R0       845.07     13.359     0         
  09293012R0       856.9      9.86       0         
  09293013R0       858.12     8.802      0         
  09293014R0       862.01     13.085     0         
  09293015R0       863.56     6.292      0         
  09293016R0       864.76     6.07       0         
  09293017R0       865.82     5.947      0         
  09293018R0       866.71     6.792      0         
  09293019R0       872.79     15.528     0         
  09304011R0       873.79     15.205     0         
  09304012R0       877.24     10.499     0         
  09304013R0       877.76     10.799     0         
  09311001R0       879.44     16.44      0         
  09311002R0       882.98     8.02       0         
  09311003R0       884.09     18.437     0         
  09311004R0       885.18     20.008     0         
  09321010R0       873.09     5.255      0         
  09321009R0       870.5      15.27      0         
  09321028R0       841.99     5.589      0         
  09321027R0       837.35     6.969      0         
  09321026R0       836        6.613      0         
  09321025R0       833.31     6.857      0         
  09321024R0       828.89     8.187      0         
  09321023R0       828.86     6.66       0         
  09321022R0       828.14     6.381      0         
  09321021R0       825.54     6.447      0         
  09321020R0       824.24     4.15       0         
  09321019R0       823.43     4.263      0         
  09321018R0       822.42     6.833      0         
  09321017R0       822.27     6.398      0         
  09321016R0       820.81     4.732      0         
  09321015R0       820.6      5.731      0         
  09321014R0       819.14     5.538      0         
  09321013R0       817.67     5.739      0         
  09321012R0       817.25     6.454      0         
  09321011R0       816.86     4.822      0         
  09321032R0       817.61     11.288     0         
  09321031R0       815.4      8.794      0         
  09321030R0       814.78     8.638      0         
  09321029R0       813.38     9.004      0         
  09321035R0       814.3      4.025      0         
  09321034R0       812.27     5.997      0         
  09321037R0       819.15     3.702      0         
  09321036R0       814.3      8          0         
  09294014R0       808.28     5.125      0         
  09294013R0       810.26     7.598      0         
  09312019R0       932.4      3.788      0         
  09312018R0       927.3      7.09       0         
  09312017R0       924.4      8.154      0         
  09312016R0       921.96     7.814      0         
  09312015R0       918.75     12.102     0         
  09312014R0       916.4      12.908     0         
  09312013R0       913.95     15.013     0         
  09312012R0       912.52     12.137     0         
  09312011R0       911.88     12.077     0         
  09312010R0       911.4      12.069     0         
  09312009R0       910.75     12.536     0         
  09312008R0       910.49     13.133     0         
  09312007R0       908.34     14.461     0         
  09312006R0       907.99     14.292     0         
  09312005R0       905.9      11.909     0         
  09312004R0       905.55     11.33      0         
  09312003R0       904.81     11.573     0         
  09312002R0       900.54     16.17      0         
  09312001R0       899.95     17.599     0         
  09303020R0       898.83     12.774     0         
  09303019R0       896.71     17.088     0         
  09303018R0       895.41     20.604     0         
  09312020R0       935.52     6.5        0         
  09312025R0       909.47     10.063     0         
  09312024R0       909.22     10.295     0         
  09312023R0       909.16     9.735      0         
  09312022R0       903.23     9.974      0         
  09312021R0       901.92     14.498     0         

[STORAGE]
;;                 Invert   Max.       Init.        Shape       Shape                           Ponded        Evap. 
;;Name             Elev.    Depth      Depth        Curve       Params                          Area          Frac. 
;;------------------------------------------------------------------------------------------------------------------
[SUBCATCHMENTS]
;;                                                   Total    Pcnt.             Pcnt.    Curb     Snow
;;Name             Raingage         Outlet           Area     Imperv   Width    Slope    Length   Pack
;;----------------------------------------------------------------------------------------------------
  09204000D1#1     10YR~CONSTANT    09204000D1       227.5    52.1     2840     7.16     0                
  09204004R0#1     10YR~CONSTANT    09204004R0       193.12   51.2     2844     5.57     0                
  09292003R0#1     10YR~CONSTANT    09292003R0       49.1     57.6     1000     6.45     0                
  09292004R0#1     10YR~CONSTANT    09292004R0       40.24    73.9     1840     5.87     0                
  09292006R0#1     10YR~CONSTANT    09292006R0       49.63    61       5670     5.57     0                
  09294003R0#1     10YR~CONSTANT    09294003R0       185.35   47.3     3000     4.96     0                
  09294007R0#1     10YR~CONSTANT    09294007R0       105.41   47.1     2660     5.28     0                
  09321002R0#1     10YR~CONSTANT    09321002R0       84.06    38.4     3230     3.51     0                
  09321005R0#1     10YR~CONSTANT    09321005R0       52.17    24.4     2700     7.78     0                
  09321008R0#1     10YR~CONSTANT    09321008R0       86.81    16       3800     6.55     0                
  09323003R0#1     10YR~CONSTANT    09323003R0       104.16   16.4     4725     4.59     0                
  09314002R0#1     10YR~CONSTANT    09314002R0       51.31    32.4     2700     4.96     0                
  09323011R0#1     10YR~CONSTANT    09323011R0       34.75    25.9     2554     4.86     0                
  09322004R0#1     10YR~CONSTANT    09322004R0       99.5     35.7     5160     4.69     0                
  09292008R0#1     10YR~CONSTANT    09292008R0       60.66    34       3500     6.25     0                
  09203002R0#1     10YR~CONSTANT    09203002R0       109.08   33.5     2520     7.62     0                
  09203013R0#1     10YR~CONSTANT    09203013R0       52.3     37       1875     8.29     0                
  09301002R0#1     10YR~CONSTANT    09301002R0       126.08   31.8     4950     8.17     0                
  09194017R0#1     10YR~CONSTANT    09194017R0       59.2     32.2     2500     6.6      0                
  09292011R0#1     10YR~CONSTANT    09292011R0       69.09    39.1     4590     7.45     0                
  09301012R0#1     10YR~CONSTANT    09301012R0       68.07    34.2     3840     8.48     0                
  09302012R0#1     10YR~CONSTANT    09302012R0       46.27    30.4     2000     5.46     0                
  09193005R0#1     10YR~CONSTANT    09193005R0       26.17    32.6     1462     4.24     0                
  09302017R0#1     10YR~CONSTANT    09302017R0       98.25    55.6     1530     4.68     0                
  09251002R0#1     10YR~CONSTANT    09251002R0       30.01    49.5     1160     6.54     0                
  09292013R0#1     10YR~CONSTANT    09292013R0       38.19    32.7     3000     6.87     0                
  09292017R0#1     10YR~CONSTANT    09292017R0       114.5    33.2     2913     7.06     0                
  09304004R0#1     10YR~CONSTANT    09304004R0       45.92    36.6     1360     6.36     0                
  09304009R0#1     10YR~CONSTANT    09304009R0       201.51   67       2000     5.89     0                
  09303001R0#1     10YR~CONSTANT    09303001R0       66.83    56.5     3420     7.35     0                
  09303017R0#1     10YR~CONSTANT    09303017R0       89.18    43       6318     7.04     0                
  09293009R0#1     10YR~CONSTANT    09293009R0       78.47    29.8     1625     6.59     0                
  09293014R0#1     10YR~CONSTANT    09293014R0       47.82    33.8     2400     6.99     0                
  09311002R0#1     10YR~CONSTANT    09311002R0       61.95    36.7     1200     5.58     0                
  09311004R0#1     10YR~CONSTANT    09311004R0       15.01    35       1494     4.63     0                
  09321010R0#1     10YR~CONSTANT    09321010R0       31.24    42.1     2900     5.61     0                
  09321028R0#1     10YR~CONSTANT    09321028R0       101.96   37.5     5890     3.24     0                
  09321017R0#1     10YR~CONSTANT    09321017R0       79.39    57.5     3800     4.2      0                
  09321032R0#1     10YR~CONSTANT    09321032R0       27.94    52.1     3000     7.62     0                
  09321035R0#1     10YR~CONSTANT    09321035R0       7.67     54.9     330      6.42     0                
  09321037R0#1     10YR~CONSTANT    09321037R0       22.95    23.1     1346     4.75     0                
  09294014R0#1     10YR~CONSTANT    09294014R0       33.28    41.1     575      3.82     0                
  09294013R0#1     10YR~CONSTANT    09294013R0       20.03    66       1330     7.37     0                
  09312002R0#1     10YR~CONSTANT    09312002R0       90.79    55       3420     5.1      0                
  09312020R0#1     10YR~CONSTANT    09312020R0       79.11    37       2000     662.6    0                
  09312025R0#1     10YR~CONSTANT    09312025R0       22.6     67.3     4600     4.91     0                

[SUBAREAS]
;;Subcatchment     N-Imperv   N-Perv     S-Imperv   S-Perv     PctZero    RouteTo    PctRouted
;;--------------------------------------------------------------------------------------------
  09204000D1#1     0.02       0.3        0.06       0.2        25         OUTLET     
  09204004R0#1     0.02       0.3        0.06       0.2        25         OUTLET     
  09292003R0#1     0.02       0.3        0.06       0.2        25         OUTLET     
  09292004R0#1     0.02       0.3        0.06       0.2        25         OUTLET     
  09292006R0#1     0.02       0.3        0.06       0.2        25         OUTLET     
  09294003R0#1     0.02       0.3        0.06       0.2        25         OUTLET     
  09294007R0#1     0.02       0.3        0.06       0.2        25         OUTLET     
  09321002R0#1     0.02       0.3        0.06       0.2        25         OUTLET     
  09321005R0#1     0.02       0.3        0.06       0.2        25         OUTLET     
  09321008R0#1     0.02       0.3        0.06       0.2        25         OUTLET     
  09323003R0#1     0.02       0.3        0.06       0.2        25         OUTLET     
  09314002R0#1     0.02       0.3        0.06       0.2        25         OUTLET     
  09323011R0#1     0.02       0.3        0.06       0.2        25         OUTLET     
  09322004R0#1     0.02       0.3        0.06       0.2        25         OUTLET     
  09292008R0#1     0.02       0.3        0.06       0.2        25         OUTLET     
  09203002R0#1     0.02       0.3        0.06       0.2        25         OUTLET     
  09203013R0#1     0.02       0.3        0.06       0.2        25         OUTLET     
  09301002R0#1     0.02       0.3        0.06       0.2        25         OUTLET     
  09194017R0#1     0.02       0.3        0.06       0.2        25         OUTLET     
  09292011R0#1     0.02       0.3        0.06       0.2        25         OUTLET     
  09301012R0#1     0.02       0.3        0.06       0.2        25         OUTLET     
  09302012R0#1     0.02       0.3        0.06       0.2        25         OUTLET     
  09193005R0#1     0.02       0.3        0.06       0.2        25         OUTLET     
  09302017R0#1     0.02       0.3        0.06       0.2        25         OUTLET     
  09251002R0#1     0.02       0.3        0.06       0.2        25         OUTLET     
  09292013R0#1     0.02       0.3        0.06       0.2        25         OUTLET     
  09292017R0#1     0.02       0.3        0.06       0.2        25         OUTLET     
  09304004R0#1     0.02       0.3        0.06       0.2        25         OUTLET     
  09304009R0#1     0.02       0.3        0.06       0.2        25         OUTLET     
  09303001R0#1     0.02       0.3        0.06       0.2        25         OUTLET     
  09303017R0#1     0.02       0.3        0.06       0.2        25         OUTLET     
  09293009R0#1     0.02       0.3        0.06       0.2        25         OUTLET     
  09293014R0#1     0.02       0.3        0.06       0.2        25         OUTLET     
  09311002R0#1     0.02       0.3        0.06       0.2        25         OUTLET     
  09311004R0#1     0.02       0.3        0.06       0.2        25         OUTLET     
  09321010R0#1     0.02       0.3        0.06       0.2        25         OUTLET     
  09321028R0#1     0.02       0.3        0.06       0.2        25         OUTLET     
  09321017R0#1     0.02       0.3        0.06       0.2        25         OUTLET     
  09321032R0#1     0.02       0.3        0.06       0.2        25         OUTLET     
  09321035R0#1     0.02       0.3        0.06       0.2        25         OUTLET     
  09321037R0#1     0.02       0.3        0.06       0.2        25         OUTLET     
  09294014R0#1     0.02       0.3        0.06       0.2        25         OUTLET     
  09294013R0#1     0.02       0.3        0.06       0.2        25         OUTLET     
  09312002R0#1     0.02       0.3        0.06       0.2        25         OUTLET     
  09312020R0#1     0.02       0.3        0.06       0.2        25         OUTLET     
  09312025R0#1     0.02       0.3        0.06       0.2        25         OUTLET     

[INFILTRATION]
;;Subcatchment     MaxRate    MinRate    Decay      DryTime    MaxInfil
;;-----------------------------------------------------------------------
  09204000D1#1     2.672      0.81       4.14                  0         
  09204004R0#1     2.334      0.717      4.14                  0         
  09292003R0#1     2.231      0.681      4.14                  0         
  09292004R0#1     2.728      0.855      4.14                  0         
  09292006R0#1     2.31       0.709      4.14                  0         
  09294003R0#1     2.12       0.642      4.14                  0         
  09294007R0#1     2          0.6        4.14                  0         
  09321002R0#1     2          0.6        4.14                  0         
  09321005R0#1     1.988      0.597      4.14                  0         
  09321008R0#1     1.944      0.699      4.14                  0         
  09323003R0#1     0.99       0.397      4.14                  0         
  09314002R0#1     1.186      0.367      4.14                  0         
  09323011R0#1     1.241      0.383      4.14                  0         
  09322004R0#1     1.732      0.523      4.14                  0         
  09292008R0#1     2          0.6        4.14                  0         
  09203002R0#1     2          0.6        4.14                  0         
  09203013R0#1     2          0.6        4.14                  0         
  09301002R0#1     2.9        1.57       4.14                  0         
  09194017R0#1     2          0.6        4.14                  0         
  09292011R0#1     2          0.6        4.14                  0         
  09301012R0#1     1.924      0.577      4.14                  0         
  09302012R0#1     1.309      0.393      4.14                  0         
  09193005R0#1     2          0.6        4.14                  0         
  09302017R0#1     1.467      0.398      4.14                  0         
  09251002R0#1     1.695      0.473      4.14                  0         
  09292013R0#1     2          0.6        4.14                  0         
  09292017R0#1     2.041      0.603      4.14                  0         
  09304004R0#1     2.119      0.608      4.14                  0         
  09304009R0#1     1.925      0.604      4.14                  0         
  09303001R0#1     2          0.6        4.14                  0         
  09303017R0#1     2.19       0.834      4.14                  0         
  09293009R0#1     2          0.6        4.14                  0         
  09293014R0#1     2          0.6        4.14                  0         
  09311002R0#1     2          0.6        4.14                  0         
  09311004R0#1     2          0.6        4.14                  0         
  09321010R0#1     1.971      0.592      4.14                  0         
  09321028R0#1     2          0.6        4.14                  0         
  09321017R0#1     2          0.6        4.14                  0         
  09321032R0#1     2          0.6        4.14                  0         
  09321035R0#1     2.002      0.6        4.14                  0         
  09321037R0#1     2          0.6        4.14                  0         
  09294014R0#1     2          0.6        4.14                  0         
  09294013R0#1     2          0.6        4.14                  0         
  09312002R0#1     1.813      0.544      4.14                  0         
  09312020R0#1     3          1          4.14                  0         
  09312025R0#1     2.5        0.8        4.14                  0         

[RDII]
;;                                                    
;;Name             UH Group          Sewer Area
;;----------------------------------------------------------------------------------------------------

[OUTFALLS]
;;                 Invert     Outfall    Stage/Table      Tide
;;Name             Elev.      Type       Time Series      Gate
;;------------------------------------------------------------
  09204000D1       760.4      FREE                        NO 

[CONDUITS]
;;                 Inlet            Outlet                      Manning    Inlet      Outlet     Init.
;;Name             Node             Node             Length     N          Height     Height     Flow
;;------------------------------------------------------------------------------------------------------------