[TITLE]
;;Project Title/Notes

[OPTIONS]
;;Option             Value
FLOW_UNITS           CFS
INFILTRATION         HORTON
FLOW_ROUTING         DYNWAVE
LINK_OFFSETS         DEPTH
MIN_SLOPE            0
ALLOW_PONDING        NO
SKIP_STEADY_STATE    NO

IGNORE_SNOWMELT      YES
IGNORE_GROUNDWATER   YES
IGNORE_QUALITY       YES
START_DATE           01/01/2002
START_TIME           00:00:00
REPORT_START_DATE    01/01/2002
REPORT_START_TIME    00:00:00
END_DATE             01/05/2002
END_TIME             23:00:00
SWEEP_START          01/01
SWEEP_END            12/31
DRY_DAYS             5.000000
REPORT_STEP          00:01:00
WET_STEP             00:01:00
DRY_STEP             24:01:00
ROUTING_STEP         0:00:10 

INERTIAL_DAMPING     NONE
NORMAL_FLOW_LIMITED  BOTH
FORCE_MAIN_EQUATION  H-W
VARIABLE_STEP        0.75
LENGTHENING_STEP     0
MIN_SURFAREA         0
MAX_TRIALS           0
HEAD_TOLERANCE       0
SYS_FLOW_TOL         5
LAT_FLOW_TOL         5
MINIMUM_STEP         0.5
THREADS              1

[EVAPORATION]
;;Data Source    Parameters
;;-------------- ----------------
CONSTANT         0.000000
DRY_ONLY         NO

[RAINGAGES]
;;Name           Format    Interval SCF      Source    
;;-------------- --------- ------ ------ ----------
; New Raingage
RAINGAGE-1       INTENSITY 0.083333 1.000000 TIMESERIES OCT16_5MIN      

[SUBCATCHMENTS]
;;Name           Rain Gage        Outlet           Area     %Imperv  Width    %Slope   CurbLen  SnowPack        
;;-------------- ---------------- ---------------- -------- -------- -------- -------- -------- ----------------
; PROVIDENCE CATCHMENT
HOSPITALCATCH    RAINGAGE-1       NID7636          9.359649 95.000000 255.412326 2.000000 0.000000                 
SUB-898          RAINGAGE-1       SMH1895A15       5.483198 95.000000 195.484825 2.000000 0.000000                 
SUB-900          RAINGAGE-1       SMH1795E04       4.013233 95.000000 167.239364 2.000000 0.000000                 
SUB-902          RAINGAGE-1       SMH1895H18       3.660542 95.000000 159.736363 2.000000 0.000000                 
SUB-904          RAINGAGE-1       SMH1795E02       2.937723 95.000000 143.096767 2.000000 0.000000                 
SUB-906          RAINGAGE-1       SMH1895H19       3.994219 95.000000 166.842987 2.000000 0.000000                 
SUB-908          RAINGAGE-1       JCT-152          2.940613 95.000000 143.169807 2.000000 0.000000                 
SUB-910          RAINGAGE-1       SMH1795N11       5.696104 95.000000 199.245681 2.000000 0.000000                 
SUB-912          RAINGAGE-1       SMH1795N03       4.427805 95.000000 175.674098 2.000000 0.000000                 
SUB-914          RAINGAGE-1       SMH1795E07       4.343460 95.000000 173.979806 2.000000 0.000000                 
SUB-916          RAINGAGE-1       SMH1795E05       5.773266 95.000000 200.587888 2.000000 0.000000                 
SUB-918          RAINGAGE-1       SMH1795E08       3.698643 95.000000 160.563229 2.000000 0.000000                 
SUB-920          RAINGAGE-1       SMH1795M04       3.424107 95.000000 154.479482 2.000000 0.000000                 
SUB-922          RAINGAGE-1       SMH1795N03       2.138139 95.000000 122.069672 2.000000 0.000000                 
SUB-924          RAINGAGE-1       SMH1795N05       3.664842 95.000000 159.823603 2.000000 0.000000                 
SUB-926          RAINGAGE-1       SMH1795N02       2.662609 95.000000 136.235255 2.000000 0.000000                 
SUB-928          RAINGAGE-1       SMH1795N04       3.708134 95.000000 160.758442 2.000000 0.000000                 
SUB-930          RAINGAGE-1       SMH1795V07       3.787817 95.000000 162.483368 2.000000 0.000000                 
SUB-934          RAINGAGE-1       SMH1795V03       8.539178 95.000000 243.953714 2.000000 0.000000                 
SUB-936          RAINGAGE-1       SMH1795V05       3.733229 95.000000 161.299463 2.000000 0.000000                 
SUB-938          RAINGAGE-1       SMH1795V06       3.724381 95.000000 161.104905 2.000000 0.000000                 
SUB-940          RAINGAGE-1       SMH1795V07       1.888392 95.000000 114.710962 2.000000 0.000000                 
; SUB-944
SUB-944          RAINGAGE-1       SMH1795W06       3.717511 95.000000 255.412326 2.000000 0.000000                 
; SUB-946
SUB-946          RAINGAGE-1       SMH1795V09       1.884398 95.000000 255.412326 2.000000 0.000000                 

[SUBAREAS]
;;Subcatchment   N-Imperv   N-Perv     S-Imperv   S-Perv     PctZero    RouteTo    PctRouted 
;;-------------- ---------- ---------- ---------- ---------- ---------- ---------- ----------
HOSPITALCATCH    0.012000   0.150000   0.050000   0.050000   25.000000  OUTLET    
SUB-898          0.012000   0.150000   0.050000   0.050000   25.000000  OUTLET    
SUB-900          0.012000   0.150000   0.050000   0.050000   25.000000  OUTLET    
SUB-902          0.012000   0.150000   0.050000   0.050000   25.000000  OUTLET    
SUB-904          0.012000   0.150000   0.050000   0.050000   25.000000  OUTLET    
SUB-906          0.012000   0.150000   0.050000   0.050000   25.000000  OUTLET    
SUB-908          0.012000   0.150000   0.050000   0.050000   25.000000  OUTLET    
SUB-910          0.012000   0.150000   0.050000   0.050000   25.000000  OUTLET    
SUB-912          0.012000   0.150000   0.050000   0.050000   25.000000  OUTLET    
SUB-914          0.012000   0.150000   0.050000   0.050000   25.000000  OUTLET    
SUB-916          0.012000   0.150000   0.050000   0.050000   25.000000  OUTLET    
SUB-918          0.012000   0.150000   0.050000   0.050000   25.000000  OUTLET    
SUB-920          0.012000   0.150000   0.050000   0.050000   25.000000  OUTLET    
SUB-922          0.012000   0.150000   0.050000   0.050000   25.000000  OUTLET    
SUB-924          0.012000   0.150000   0.050000   0.050000   25.000000  OUTLET    
SUB-926          0.012000   0.150000   0.050000   0.050000   25.000000  OUTLET    
SUB-928          0.012000   0.150000   0.050000   0.050000   25.000000  OUTLET    
SUB-930          0.012000   0.150000   0.050000   0.050000   25.000000  OUTLET    
SUB-934          0.012000   0.150000   0.050000   0.050000   25.000000  OUTLET    
SUB-936          0.012000   0.150000   0.050000   0.050000   25.000000  OUTLET    
SUB-938          0.012000   0.150000   0.050000   0.050000   25.000000  OUTLET    
SUB-940          0.012000   0.150000   0.050000   0.050000   25.000000  OUTLET    
SUB-944          0.012000   0.150000   0.050000   0.050000   25.000000  OUTLET    
SUB-946          0.012000   0.150000   0.050000   0.050000   25.000000  OUTLET    

[INFILTRATION]
;;Subcatchment   MaxRate    MinRate    Decay      DryTime    MaxInfil  
;;-------------- ---------- ---------- ---------- ---------- ----------
HOSPITALCATCH    3.0        0.5        4          7          0         
SUB-898          3.0        0.5        4          7          0         
SUB-900          3.0        0.5        4          7          0         
SUB-902          3.0        0.5        4          7          0         
SUB-904          3.0        0.5        4          7          0         
SUB-906          3.0        0.5        4          7          0         
SUB-908          3.0        0.5        4          7          0         
SUB-910          3.0        0.5        4          7          0         
SUB-912          3.0        0.5        4          7          0         
SUB-914          3.0        0.5        4          7          0         
SUB-916          3.0        0.5        4          7          0         
SUB-918          3.0        0.5        4          7          0         
SUB-920          3.0        0.5        4          7          0         
SUB-922          3.0        0.5        4          7          0         
SUB-924          3.0        0.5        4          7          0         
SUB-926          3.0        0.5        4          7          0         
SUB-928          3.0        0.5        4          7          0         
SUB-930          3.0        0.5        4          7          0         
SUB-934          3.0        0.5        4          7          0         
SUB-936          3.0        0.5        4          7          0         
SUB-938          3.0        0.5        4          7          0         
SUB-940          3.0        0.5        4          7          0         
SUB-944          3.0        0.5        4          7          0         
SUB-946          3.0        0.5        4          7          0         

[JUNCTIONS]
;;Name           Elevation  MaxDepth   InitDepth  SurDepth   Aponded   
;;-------------- ---------- ---------- ---------- ---------- ----------
; SMH1895J08
JCT-148          107.750000 19.200000  0.000000   0.000000   0.000000  
; SMH1895J08
JCT-150          106.470000 17.030000  0.000000   0.000000   0.000000  
; SMH1895J08
JCT-152          107.660000 17.840000  0.000000   0.000000   0.000000  
; SMH1895J08
JCT-154          106.330000 18.940000  0.000000   0.000000   0.000000  
; SMH1895J08
JCT-156          105.070000 19.810000  0.000000   0.000000   0.000000  
; NID7636
NID7636          109.070000 15.930000  0.000000   0.000000   0.000000  
; SMH1795E02
SMH1795E02       118.790000 3.970000   0.000000   0.000000   0.000000  
; SMH1795E03
SMH1795E03       117.200000 4.390000   0.000000   0.000000   0.000000  
; SMH1795E04
SMH1795E04       132.490000 6.000000   0.000000   0.000000   0.000000  
; SMH1795E05
SMH1795E05       126.070000 8.130000   0.000000   0.000000   0.000000  
; SMH1795E06
SMH1795E06       119.500000 10.430000  0.000000   0.000000   0.000000  
; SMH1795E07
SMH1795E07       121.030000 10.410000  0.000000   0.000000   0.000000  
; SMH1795E08
SMH1795E08       116.130000 14.500000  0.000000   0.000000   0.000000  
; SMH1795M01
SMH1795M01       112.700000 4.280000   0.000000   0.000000   0.000000  
; SMH1795M03
SMH1795M03       113.060000 13.030000  0.000000   0.000000   0.000000  
; SMH1795M04
SMH1795M04       103.840000 20.580000  0.000000   0.000000   0.000000  
; SMH1795N01
SMH1795N01       103.300000 15.320000  0.000000   0.000000   0.000000  
; SMH1795N02
SMH1795N02       100.650000 15.970000  0.000000   0.000000   0.000000  
; SMH1795N03
SMH1795N03       100.240000 17.680000  0.000000   0.000000   0.000000  
; SMH1795N04
SMH1795N04       94.630000  10.370000  0.000000   0.000000   0.000000  
; SMH1795N05
SMH1795N05       100.140000 14.210000  0.000000   0.000000   0.000000  
; SMH1795N06
SMH1795N06       96.440000  9.400000   0.000000   0.000000   0.000000  
; SMH1795N11
SMH1795N11       101.320000 10.320000  0.000000   0.000000   0.000000  
; SMH1795V01
SMH1795V01       98.550000  20.070000  0.000000   0.000000   0.000000  
; SMH1795V02
SMH1795V02       94.620000  11.000000  0.000000   0.000000   0.000000  
; SMH1795V03
SMH1795V03       92.300000  11.320000  0.000000   0.000000   0.000000  
; SMH1795V04
SMH1795V04       92.920000  5.680000   0.000000   0.000000   0.000000  
; SMH1795V05
SMH1795V05       92.020000  7.800000   0.000000   0.000000   0.000000  
; SMH1795V09
SMH1795V06       90.160000  11.220000  0.000000   0.000000   0.000000  
; SMH1795V07
SMH1795V07       92.740000  9.390000   0.000000   0.000000   0.000000  
; SMH1795V08
SMH1795V08       89.000000  12.370000  0.000000   0.000000   0.000000  
; SMH1795V09
SMH1795V09       88.300000  11.920000  0.000000   0.000000   0.000000  
; SMH1795W02
SMH1795W02       94.780000  9.640000   0.000000   0.000000   0.000000  
; SMH1795W06
SMH1795W06       92.620000  10.950000  0.000000   0.000000   0.000000  
; SMH1795W10
SMH1795W10       85.720000  14.680000  0.000000   0.000000   0.000000  
; SMH1795W13
SMH1795W13       84.620000  14.580000  0.000000   0.000000   0.000000  
; SMH1795W14
SMH1795W14       84.520000  14.590000  0.000000   0.000000   0.000000  
; SMH1795W15
SMH1795W15       82.820000  13.930000  0.000000   0.000000   0.000000  
; SMH1895A14
SMH1895A14       115.530000 4.200000   0.000000   0.000000   0.000000  
; SMH1895A15
SMH1895A15       115.940000 5.170000   0.000000   0.000000   0.000000  
; SMH1895H17
SMH1895H17       115.570000 6.500000   0.000000   0.000000   0.000000  
; SMH1895H18
SMH1895H18       112.950000 7.670000   0.000000   0.000000   0.000000  
; SMH1895H19
SMH1895H19       110.850000 12.770000  0.000000   0.000000   0.000000  
; SMH1895J08
SMH1895J08       107.850000 18.770000  0.000000   0.000000   0.000000  

[OUTFALLS]
;;Name           Elevation  Type       Stage Data       Gated    Route To        
;;-------------- ---------- ---------- ---------------- -------- ----------------
OF_SWR_L         82.720000  FREE                        NO                       

[CONDUITS]
;;Name           From Node        To Node          Length     Roughness  InOffset   OutOffset  InitFlow   MaxFlow   
;;-------------- ---------------- ---------------- ---------- ---------- ---------- ---------- ---------- ----------
; SML1895H19
CDT-613          SMH1895J08       JCT-148          40.335000  0.013000   0.000000   0.000000   0.000000   0.000000  
; SML1895H19
CDT-615          JCT-148          JCT-152          51.452000  0.013000   0.000000   0.000000   0.000000   0.000000  
; SML1895H19
CDT-617          JCT-152          JCT-150          208.270000 0.013000   0.000000   0.000000   0.000000   0.000000  
; SML1895H19
CDT-619          JCT-150          JCT-154          26.849000  0.013000   0.000000   0.000000   0.000000   0.000000  
; Splitted conduit
CDT-621          JCT-156          SMH1795N01       138.862000 0.013000   0.000000   0.850000   0.000000   0.000000  
; SML1895H19
CDT-623          JCT-154          JCT-156          212.461000 0.013000   0.000000   0.030000   0.000000   0.000000  
; SML1895H19
CDT-625          SMH1795N01       SMH1795N03       342.073000 0.013000   0.000000   0.310000   0.000000   0.000000  
; SML1795W0B
CDT-677          SMH1795W15       OF_SWR_L         34.097026  0.013000   0.000000   0.000000   0.000000   0.000000  
; DID7725
DID7725          SMH1895H18       SMH1895H19       479.330000 0.013000   0.000000   0.100000   0.000000   0.000000  
; DID7728
DID7728          NID7636          SMH1795N03       652.160442 0.013000   0.930000   0.100000   0.000000   0.000000  
; SML1795E02
SML1795E02       SMH1795E02       SMH1795E03       149.482000 0.013000   0.000000   0.100000   0.000000   0.000000  
; SML1795E03
SML1795E03       SMH1795E03       SMH1795M01       421.519000 0.013000   0.000000   0.100000   0.000000   0.000000  
; SML1795E04
SML1795E04       SMH1795E04       SMH1795E05       400.526000 0.013000   0.000000   0.100000   0.000000   0.000000  
; SML1795E05
SML1795E05       SMH1795E05       SMH1795E06       483.022000 0.013000   0.000000   0.100000   0.000000   0.000000  
; SML1795E06
SML1795E06       SMH1795E06       NID7636          314.539157 0.013000   0.000000   7.280000   0.000000   0.000000  
; SML1795E07
SML1795E07       SMH1795E07       SMH1795E08       481.921000 0.013000   0.000000   0.100000   0.000000   0.000000  
; SML1795E08
SML1795E08       SMH1795E08       SMH1795M03       298.435000 0.013000   0.000000   0.100000   0.000000   0.000000  
; SML1795M01
SML1795M01       SMH1795M01       NID7636          339.377000 0.013000   0.000000   0.250000   0.000000   0.000000  
; SML1795M03
SML1795M03       SMH1795M03       SMH1795M04       180.556000 0.013000   0.000000   7.390000   0.000000   0.000000  
; SML1795M04
SML1795M04       SMH1795M04       SMH1795N05       478.661000 0.013000   0.000000   0.100000   0.000000   0.000000  
; SML1795N02
SML1795N02       SMH1795N02       SMH1795V01       478.753000 0.013000   0.000000   0.200000   0.000000   0.000000  
; SML1795N03
SML1795N03       SMH1795N03       SMH1795N04       478.845000 0.013000   0.000000   0.080000   0.000000   0.000000  
; SML1795N04
SML1795N04       SMH1795N04       SMH1795V04       480.838000 0.013000   0.000000   0.170000   0.000000   0.000000  
; SML1795N05
SML1795N05       SMH1795N05       SMH1795N06       481.075000 0.013000   0.000000   0.100000   0.000000   0.000000  
; SML1795N06
SML1795N06       SMH1795N06       SMH1795V07       479.218379 0.013000   0.000000   0.100000   0.000000   0.000000  
; SML1795N11
SML1795N11       SMH1795N11       SMH1795N02       90.120000  0.013000   0.000000   0.200000   0.000000   0.000000  
; SML1795V01
SML1795V01       SMH1795V01       SMH1795V02       173.152000 0.013000   0.000000   0.300000   0.000000   0.000000  
; SML1795V02
SML1795V02       SMH1795V02       SMH1795V03       479.935000 0.013000   0.000000   0.080000   0.000000   0.000000  
; SML1795V03
SML1795V03       SMH1795V03       SMH1795V06       343.610000 0.013000   0.000000   0.100000   0.000000   0.000000  
; SML1795V04
SML1795V04       SMH1795V04       SMH1795V05       177.542000 0.013000   0.000000   0.000000   0.000000   0.000000  
; SML1795V05
SML1795V05       SMH1795V05       SMH1795V06       480.118000 0.013000   0.000000   0.210000   0.000000   0.000000  
; SML1795V06
SML1795V06       SMH1795V06       SMH1795V08       169.993000 0.013000   0.000000   0.000000   0.000000   0.000000  
; SML1795V07
SML1795V07       SMH1795V07       SMH1795V08       481.726000 0.013000   0.000000   0.160000   0.000000   0.000000  
; SML1795V08
SML1795V08       SMH1795V08       SMH1795V09       173.586000 0.013000   0.000000   0.090000   0.000000   0.000000  
; SML1795V09
SML1795V09       SMH1795V09       SMH1795W10       467.631000 0.013000   0.000000   0.750000   0.000000   0.000000  
; SML1795W02
SML1795W02       SMH1795W02       SMH1795V03       426.313000 0.013000   0.000000   0.800000   0.000000   0.000000  
; SML1795W06
SML1795W06       SMH1795W06       SMH1795V06       429.505000 0.013000   0.400000   1.440000   0.000000   0.000000  
; SML1795W0B
SML1795W0B       SMH1795W14       SMH1795W15       470.153517 0.013000   0.100000   0.000000   0.000000   0.000000  
; SML1795W10
SML1795W10       SMH1795W10       SMH1795W13       187.771000 0.013000   0.000000   0.100000   0.000000   0.000000  
; SML1795W13
SML1795W13       SMH1795W13       SMH1795W14       18.350513  0.013000   0.000000   0.000000   0.000000   0.000000  
; SML1895A14
SML1895A14       SMH1895A14       SMH1895H18       461.103000 0.013000   0.000000   1.070000   0.000000   0.000000  
; SML1895A15
SML1895A15       SMH1895A15       SMH1895A14       50.000000  0.013000   0.000000   0.000000   0.000000   0.000000  
; SML1895H0A
SML1895H0A       SMH1895H17       SMH1895H18       172.458000 0.013000   0.430000   1.070000   0.000000   0.000000  
; SML1895H19
SML1895H19       SMH1895H19       SMH1895J08       473.691000 0.013000   0.000000   0.100000   0.000000   0.000000  

[XSECTIONS]
;;Link           Shape        Geom1            Geom2      Geom3      Geom4      Barrels    Culvert   
;;-------------- ------------ ---------------- ---------- ---------- ---------- ---------- ----------
CDT-613          CIRCULAR     2.000000         0.000000   0.000000   0.000000   1          0         
CDT-615          CIRCULAR     2.000000         0.000000   0.000000   0.000000   1          0         
CDT-617          CIRCULAR     2.000000         0.000000   0.000000   0.000000   1          0         
CDT-619          CIRCULAR     2.000000         0.000000   0.000000   0.000000   1          0         
CDT-621          CIRCULAR     2.000000         0.000000   0.000000   0.000000   1          0         
CDT-623          CIRCULAR     2.000000         0.000000   0.000000   0.000000   1          0         
CDT-625          CIRCULAR     1.500000         0.000000   0.000000   0.000000   1          0         
CDT-677          CIRCULAR     2.500000         0.000000   0.000000   0.000000   1          0         
DID7725          CIRCULAR     2.000000         0.000000   0.000000   0.000000   1          0         
DID7728          CIRCULAR     0.833000         0.000000   0.000000   0.000000   1          0         
SML1795E02       CIRCULAR     1.000000         0.000000   0.000000   0.000000   1          0         
SML1795E03       CIRCULAR     1.000000         0.000000   0.000000   0.000000   1          0         
SML1795E04       CIRCULAR     1.000000         0.000000   0.000000   0.000000   1          0         
SML1795E05       CIRCULAR     1.000000         0.000000   0.000000   0.000000   1          0         
SML1795E06       CIRCULAR     1.000000         0.000000   0.000000   0.000000   1          0         
SML1795E07       CIRCULAR     1.000000         0.000000   0.000000   0.000000   1          0         
SML1795E08       CIRCULAR     1.000000         0.000000   0.000000   0.000000   1          0         
SML1795M01       CIRCULAR     1.000000         0.000000   0.000000   0.000000   1          0         
SML1795M03       CIRCULAR     1.000000         0.000000   0.000000   0.000000   1          0         
SML1795M04       CIRCULAR     2.000000         0.000000   0.000000   0.000000   1          0         
SML1795N02       CIRCULAR     2.000000         0.000000   0.000000   0.000000   1          0         
SML1795N03       CIRCULAR     1.500000         0.000000   0.000000   0.000000   1          0         
SML1795N04       CIRCULAR     1.750000         0.000000   0.000000   0.000000   1          0         
SML1795N05       CIRCULAR     2.000000         0.000000   0.000000   0.000000   1          0         
SML1795N06       CIRCULAR     2.000000         0.000000   0.000000   0.000000   1          0         
SML1795N11       CIRCULAR     2.000000         0.000000   0.000000   0.000000   1          0         
SML1795V01       CIRCULAR     2.250000         0.000000   0.000000   0.000000   1          0         
SML1795V02       CIRCULAR     2.250000         0.000000   0.000000   0.000000   1          0         
SML1795V03       CIRCULAR     1.750000         0.000000   0.000000   0.000000   1          0         
SML1795V04       CIRCULAR     1.750000         0.000000   0.000000   0.000000   1          0         
SML1795V05       CIRCULAR     1.750000         0.000000   0.000000   0.000000   1          0         
SML1795V06       CIRCULAR     2.000000         0.000000   0.000000   0.000000   1          0         
SML1795V07       CIRCULAR     2.000000         0.000000   0.000000   0.000000   1          0         
SML1795V08       CIRCULAR     2.000000         0.000000   0.000000   0.000000   1          0         
SML1795V09       CIRCULAR     2.000000         0.000000   0.000000   0.000000   1          0         
SML1795W02       CIRCULAR     0.667000         0.000000   0.000000   0.000000   1          0         
SML1795W06       CIRCULAR     0.667000         0.000000   0.000000   0.000000   1          0         
SML1795W0B       CIRCULAR     2.500000         0.000000   0.000000   0.000000   1          0         
SML1795W10       CIRCULAR     2.000000         0.000000   0.000000   0.000000   1          0         
SML1795W13       CIRCULAR     2.500000         0.000000   0.000000   0.000000   1          0         
SML1895A14       CIRCULAR     0.667000         0.000000   0.000000   0.000000   1          0         
SML1895A15       CIRCULAR     0.667000         0.000000   0.000000   0.000000   1          0         
SML1895H0A       CIRCULAR     0.667000         0.000000   0.000000   0.000000   1          0         
SML1895H19       CIRCULAR     2.000000         0.000000   0.000000   0.000000   1          0         

[LOSSES]
;;Link           Kentry     Kexit      Kavg       Flap Gate  Seepage   
;;-------------- ---------- ---------- ---------- ---------- ----------
CDT-613          0.000000   0.000000   0.000000   NO         0         
CDT-615          0.000000   0.000000   0.000000   NO         0         
CDT-617          0.000000   0.000000   0.000000   NO         0         
CDT-619          0.000000   0.000000   0.000000   NO         0         
CDT-621          0.000000   0.000000   0.000000   NO         0         
CDT-623          0.000000   0.000000   0.000000   NO         0         
CDT-625          0.000000   0.000000   0.000000   NO         0         
CDT-677          0.000000   0.000000   0.000000   NO         0         
DID7725          0.000000   0.000000   0.000000   NO         0         
DID7728          0.000000   0.000000   0.000000   NO         0         
SML1795E02       0.000000   0.000000   0.000000   NO         0         
SML1795E03       0.000000   0.000000   0.000000   NO         0         
SML1795E04       0.000000   0.000000   0.000000   NO         0         
SML1795E05       0.000000   0.000000   0.000000   NO         0         
SML1795E06       0.000000   0.000000   0.000000   NO         0         
SML1795E07       0.000000   0.000000   0.000000   NO         0         
SML1795E08       0.000000   0.000000   0.000000   NO         0         
SML1795M01       0.000000   0.000000   0.000000   NO         0         
SML1795M03       0.000000   0.000000   0.000000   NO         0         
SML1795M04       0.000000   0.000000   0.000000   NO         0         
SML1795N02       0.000000   0.000000   0.000000   NO         0         
SML1795N03       0.000000   0.000000   0.000000   NO         0         
SML1795N04       0.000000   0.000000   0.000000   NO         0         
SML1795N05       0.000000   0.000000   0.000000   NO         0         
SML1795N06       0.000000   0.000000   0.000000   NO         0         
SML1795N11       0.000000   0.000000   0.000000   NO         0         
SML1795V01       0.000000   0.000000   0.000000   NO         0         
SML1795V02       0.000000   0.000000   0.000000   NO         0         
SML1795V03       0.000000   0.000000   0.000000   NO         0         
SML1795V04       0.000000   0.000000   0.000000   NO         0         
SML1795V05       0.000000   0.000000   0.000000   NO         0         
SML1795V06       0.000000   0.000000   0.000000   NO         0         
SML1795V07       0.000000   0.000000   0.000000   NO         0         
SML1795V08       0.000000   0.000000   0.000000   NO         0         
SML1795V09       0.000000   0.000000   0.000000   NO         0         
SML1795W02       0.000000   0.000000   0.000000   NO         0         
SML1795W06       0.000000   0.000000   0.000000   NO         0         
SML1795W0B       0.000000   0.000000   0.000000   NO         0         
SML1795W10       0.000000   0.000000   0.000000   NO         0         
SML1795W13       0.000000   0.000000   0.000000   NO         0         
SML1895A14       0.000000   0.000000   0.000000   NO         0         
SML1895A15       0.000000   0.000000   0.000000   NO         0         
SML1895H0A       0.000000   0.000000   0.000000   NO         0         
SML1895H19       0.000000   0.000000   0.000000   NO         0         

[CONTROLS]



[INFLOWS]
;;Node           Constituent      Time Series      Type     Mfactor  Sfactor  Baseline Pattern
;;-------------- ---------------- ---------------- -------- -------- -------- -------- --------
JCT-148          FLOW             ""               FLOW     1.0      1.000000         
JCT-150          FLOW             ""               FLOW     1.0      1.000000         
JCT-152          FLOW             ""               FLOW     1.0      1.000000         
JCT-154          FLOW             ""               FLOW     1.0      1.000000         
JCT-156          FLOW             ""               FLOW     1.0      1.000000         
NID7636          FLOW             ""               FLOW     1.0      1.000000         
SMH1795E02       FLOW             ""               FLOW     1.0      1.000000         
SMH1795E03       FLOW             ""               FLOW     1.0      1.000000         
SMH1795E04       FLOW             ""               FLOW     1.0      1.000000         
SMH1795E05       FLOW             ""               FLOW     1.0      1.000000         
SMH1795E06       FLOW             ""               FLOW     1.0      1.000000         
SMH1795E07       FLOW             ""               FLOW     1.0      1.000000         
SMH1795M01       FLOW             ""               FLOW     1.0      1.000000         
SMH1795N01       FLOW             ""               FLOW     1.0      1.000000         
SMH1795N02       FLOW             ""               FLOW     1.0      1.000000         
SMH1795N03       FLOW             ""               FLOW     1.0      1.000000         
SMH1795N04       FLOW             ""               FLOW     1.0      1.000000         
SMH1795V03       FLOW             ""               FLOW     1.0      1.000000         
SMH1795W02       FLOW             ""               FLOW     1.0      1.000000         
SMH1795W06       FLOW             ""               FLOW     1.0      1.000000         
SMH1795W13       FLOW             ""               FLOW     1.0      1.000000         
SMH1895A14       FLOW             ""               FLOW     1.0      1.000000         
SMH1895A15       FLOW             ""               FLOW     1.0      1.000000         
SMH1895H17       FLOW             ""               FLOW     1.0      1.000000         
SMH1895H18       FLOW             ""               FLOW     1.0      1.000000         
SMH1895H19       FLOW             ""               FLOW     1.0      1.000000         
SMH1895J08       FLOW             ""               FLOW     1.0      1.000000         

[DWF]
;;Node           Constituent      Baseline   Patterns  
;;-------------- ---------------- ---------- ----------
JCT-148          FLOW             0.010000   "SWR_L_N_N3" ""
JCT-150          FLOW             0.010000   "SWR_L_N_N3" ""
JCT-152          FLOW             0.010000   "SWR_L_N_N3" ""
JCT-154          FLOW             0.010000   "SWR_L_N_N3" ""
JCT-156          FLOW             0.010000   "SWR_L_N_N3" ""
NID7636          FLOW             0.010000   "SWR_L_N_N3" ""
SMH1795E02       FLOW             0.010000   "SWR_L_N_N3" ""
SMH1795E03       FLOW             0.010000   "SWR_L_N_N3" ""
SMH1795E04       FLOW             0.010000   "SWR_L_N_N3" ""
SMH1795E05       FLOW             0.010000   "SWR_L_N_N3" ""
SMH1795E06       FLOW             0.010000   "SWR_L_N_N3" ""