[TITLE]
;;Project Title/Notes

[OPTIONS]
;;Option             Value
FLOW_UNITS           CFS
INFILTRATION         HORTON
FLOW_ROUTING         DYNWAVE
LINK_OFFSETS         DEPTH
MIN_SLOPE            0
ALLOW_PONDING        YES
SKIP_STEADY_STATE    NO

START_DATE           05/22/2014
START_TIME           14:00:00
REPORT_START_DATE    05/22/2014
REPORT_START_TIME    14:00:00
END_DATE             05/24/2014
END_TIME             06:00:00
SWEEP_START          01/01
SWEEP_END            12/31
DRY_DAYS             0
REPORT_STEP          00:01:00
WET_STEP             00:03:00
DRY_STEP             00:10:00
ROUTING_STEP         0:00:10 

INERTIAL_DAMPING     PARTIAL
NORMAL_FLOW_LIMITED  BOTH
FORCE_MAIN_EQUATION  H-W
VARIABLE_STEP        0.75
LENGTHENING_STEP     5
MIN_SURFAREA         12.557
MAX_TRIALS           8
HEAD_TOLERANCE       0.0001
SYS_FLOW_TOL         5
LAT_FLOW_TOL         5
MINIMUM_STEP         0.5
THREADS              1

[EVAPORATION]
;;Data Source    Parameters
;;-------------- ----------------
CONSTANT         0.0
DRY_ONLY         NO

[RAINGAGES]
;;Name           Format    Interval SCF      Source    
;;-------------- --------- ------ ------ ----------
;Silverberry 4, University of Alberta Weather Station
;HOBO Climate Station
Weather_Station_10424981 INTENSITY 0:10     1.0      TIMESERIES Chicago_100yr   

[SUBCATCHMENTS]
;;Name           Rain Gage        Outlet           Area     %Imperv  Width    %Slope   CurbLen  SnowPack        
;;-------------- ---------------- ---------------- -------- -------- -------- -------- -------- ----------------
A185             Weather_Station_10424981 400295           10.15    70       599      1.5      0                        
A186             Weather_Station_10424981 379776           6.16     70       555      1.5      0                        
A187             Weather_Station_10424981 379585           22.08    70       1259     1.5      0                        
A188             Weather_Station_10424981 389253           13.59    70       536      1.5      0                        

[SUBAREAS]
;;Subcatchment   N-Imperv   N-Perv     S-Imperv   S-Perv     PctZero    RouteTo    PctRouted 
;;-------------- ---------- ---------- ---------- ---------- ---------- ---------- ----------
A185             0.015      0.03       0.05       0.05       25         OUTLET    
A186             0.015      0.03       0.05       0.05       25         OUTLET    
A187             0.015      0.03       0.05       0.05       25         OUTLET    
A188             0.015      0.03       0.05       0.05       25         OUTLET    

[INFILTRATION]
;;Subcatchment   MaxRate    MinRate    Decay      DryTime    MaxInfil  
;;-------------- ---------- ---------- ---------- ---------- ----------
A185             3.0        0.5        4          7          0         
A186             3.0        0.5        4          7          0         
A187             3.0        0.5        4          7          0         
A188             3.0        0.5        4          7          0         

[JUNCTIONS]
;;Name           Elevation  MaxDepth   InitDepth  SurDepth   Aponded   
;;-------------- ---------- ---------- ---------- ---------- ----------
379585           2317.09325 10         0          0          0         
379754           2316.863591 10         0          0          0         
379776           2316.929208 10         0          0          0         
379778           2315.354405 10         0          0          0         
389231           2318.897712 10         0          0          0         
389232           2316.538788 10         0          0          0         
389235           2311.433801 10         0          0          0         
389253           2334.881964 10         0          0          0         
400295           2317.650993 10         0          0          0         
400577           2316.863591 10         0          0          0         
400583           2310.203486 10         0          0          0         

[OUTFALLS]
;;Name           Elevation  Type       Stage Data       Gated    Route To        
;;-------------- ---------- ---------- ---------------- -------- ----------------
379782           2311.35    FREE                        NO                       

[STORAGE]
;;Name           Elev.    MaxDepth   InitDepth  Shape      Curve Name/Params            N/A      Fevap    Psi      Ksat     IMD     
;;-------------- -------- ---------- ----------- ---------- ---------------------------- -------- --------          -------- --------
;Silverberry #4 Storm Water Facility
;The validity of the Pond volume is likely quite low once the pond depth exceeds 15ft.
Silverberry_4    2309.71  15.091864  7.2342522  TABULAR    Silverberry_4_Curve          1000     0       

[CONDUITS]
;;Name           From Node        To Node          Length     Roughness  InOffset   OutOffset  InitFlow   MaxFlow   
;;-------------- ---------------- ---------------- ---------- ---------- ---------- ---------- ---------- ----------
379755           379585           379754           114.8294   0.015      0          0          0          0         
379780           379776           379778           170.6364884 0.015      0          0          0          0         
389238           389231           389232           173.4252024 0.015      0          0          0          0         
389240           389232           389235           98.097116  0.015      0          0          0          0         
389256           389253           389231           48.1299228 0.015      0          0          0          0         
400581           400295           400577           134.3832064 0.015      0          0          0          0         
400584           400577           400583           426.5092   0.015      0          0          0          0         
FAKE_400583      400583           Silverberry_4    0.1        0.015      0          0.49       0          0         
FAKE_379778      379778           Silverberry_4    0.1        0.015      0          5.64       0          0         
FAKE_389235      389235           Silverberry_4    0.1        0.015      0          1.72       0          0         
FAKE_379754      379754           Silverberry_4    0.1        0.015      0          7.15       0          0         

[XSECTIONS]
;;Link           Shape        Geom1            Geom2      Geom3      Geom4      Barrels    Culvert   
;;-------------- ------------ ---------------- ---------- ---------- ---------- ---------- ----------
379755           CIRCULAR     5.413386         0          0          0          1                    
379780           CIRCULAR     1.476378         0          0          0          1                    
389238           CIRCULAR     2.214567         0          0          0          1                    
389240           CIRCULAR     2.214567         0          0          0          1                    
389256           CIRCULAR     0.984252         0          0          0          1                    
400581           CIRCULAR     3.444882         0          0          0          1                    
400584           CIRCULAR     3.444882         0          0          0          1                    
FAKE_400583      CIRCULAR     3.444882         0          0          0          1                    
FAKE_379778      CIRCULAR     1.476378         0          0          0          1                    
FAKE_389235      CIRCULAR     2.214567         0          0          0          1                    
FAKE_379754      CIRCULAR     5.413386         0          0          0          1                    

[CURVES]
;;Name           Type       X-Value    Y-Value   
;;-------------- ---------- ---------- ----------
;Level/Volume Curve computed using ArcScene 10.1 Software
Silverberry_4_Curve Storage    0          0         
Silverberry_4_Curve            1.64042    178.2503679
Silverberry_4_Curve            3.28084    3140.048148
Silverberry_4_Curve            4.265092   10689.96304
Silverberry_4_Curve            5.249344   40818.47314
Silverberry_4_Curve            6.233596   99769.07745
Silverberry_4_Curve            7.545932   195384.254
Silverberry_4_Curve            8.530184   236999.2565
Silverberry_4_Curve            9.514436   270525.9334
Silverberry_4_Curve            10.826772  306948.7481
Silverberry_4_Curve            11.811024  332108.9598
Silverberry_4_Curve            12.795276  356250.4749
Silverberry_4_Curve            14.107612  389311.6126
Silverberry_4_Curve            15.091864  414820.6826
Silverberry_4_Curve            16.076116  541104.7175

[TIMESERIES]
;;Name           Date       Time       Value     
;;-------------- ---------- ---------- ----------
;Rain data time series collected for Silverberry 4 by our installed HOBO climate station
Rain_Gage_DATA_Silverberry4 05/22/2014 13:50      0         
Rain_Gage_DATA_Silverberry4 05/22/2014 14:00      0         
Rain_Gage_DATA_Silverberry4 05/22/2014 14:10      0         
Rain_Gage_DATA_Silverberry4 05/22/2014 14:20      0         
Rain_Gage_DATA_Silverberry4 05/22/2014 14:30      0         
Rain_Gage_DATA_Silverberry4 05/22/2014 14:40      0         
Rain_Gage_DATA_Silverberry4 05/22/2014 14:50      0.00787402
Rain_Gage_DATA_Silverberry4 05/22/2014 15:00      0         
Rain_Gage_DATA_Silverberry4 05/22/2014 15:10      0         
Rain_Gage_DATA_Silverberry4 05/22/2014 15:20      0         
Rain_Gage_DATA_Silverberry4 05/22/2014 15:30      0         
Rain_Gage_DATA_Silverberry4 05/22/2014 15:40      0         
Rain_Gage_DATA_Silverberry4 05/22/2014 15:50      0         
Rain_Gage_DATA_Silverberry4 05/22/2014 16:00      0         
Rain_Gage_DATA_Silverberry4 05/22/2014 16:10      0         
Rain_Gage_DATA_Silverberry4 05/22/2014 16:20      0         
Rain_Gage_DATA_Silverberry4 05/22/2014 16:30      0         
Rain_Gage_DATA_Silverberry4 05/22/2014 16:40      0         
Rain_Gage_DATA_Silverberry4 05/22/2014 16:50      0         
Rain_Gage_DATA_Silverberry4 05/22/2014 17:00      0         
Rain_Gage_DATA_Silverberry4 05/22/2014 17:10      0         
Rain_Gage_DATA_Silverberry4 05/22/2014 17:20      0         
Rain_Gage_DATA_Silverberry4 05/22/2014 17:30      0         
Rain_Gage_DATA_Silverberry4 05/22/2014 17:40      0         
Rain_Gage_DATA_Silverberry4 05/22/2014 17:50      0         
Rain_Gage_DATA_Silverberry4 05/22/2014 18:00      0         
Rain_Gage_DATA_Silverberry4 05/22/2014 18:10      0         
Rain_Gage_DATA_Silverberry4 05/22/2014 18:20      0         
Rain_Gage_DATA_Silverberry4 05/22/2014 18:30      0         
Rain_Gage_DATA_Silverberry4 05/22/2014 18:40      0         
Rain_Gage_DATA_Silverberry4 05/22/2014 18:50      0         
Rain_Gage_DATA_Silverberry4 05/22/2014 19:00      0         
Rain_Gage_DATA_Silverberry4 05/22/2014 19:10      0         
Rain_Gage_DATA_Silverberry4 05/22/2014 19:20      0         
Rain_Gage_DATA_Silverberry4 05/22/2014 19:30      0         
Rain_Gage_DATA_Silverberry4 05/22/2014 19:40      0         
Rain_Gage_DATA_Silverberry4 05/22/2014 19:50      0         
Rain_Gage_DATA_Silverberry4 05/22/2014 20:00      0         
Rain_Gage_DATA_Silverberry4 05/22/2014 20:10      0         
Rain_Gage_DATA_Silverberry4 05/22/2014 20:20      0         
Rain_Gage_DATA_Silverberry4 05/22/2014 20:30      0         
Rain_Gage_DATA_Silverberry4 05/22/2014 20:40      0         
Rain_Gage_DATA_Silverberry4 05/22/2014 20:50      0         
Rain_Gage_DATA_Silverberry4 05/22/2014 21:00      0         
Rain_Gage_DATA_Silverberry4 05/22/2014 21:10      0         
Rain_Gage_DATA_Silverberry4 05/22/2014 21:20      0         
Rain_Gage_DATA_Silverberry4 05/22/2014 21:30      0         
Rain_Gage_DATA_Silverberry4 05/22/2014 21:40      0         
Rain_Gage_DATA_Silverberry4 05/22/2014 21:50      0         
Rain_Gage_DATA_Silverberry4 05/22/2014 22:00      0         
Rain_Gage_DATA_Silverberry4 05/22/2014 22:10      0         
Rain_Gage_DATA_Silverberry4 05/22/2014 22:20      0         
Rain_Gage_DATA_Silverberry4 05/22/2014 22:30      0         
Rain_Gage_DATA_Silverberry4 05/22/2014 22:40      0         
Rain_Gage_DATA_Silverberry4 05/22/2014 22:50      0         
Rain_Gage_DATA_Silverberry4 05/22/2014 23:00      0         
Rain_Gage_DATA_Silverberry4 05/22/2014 23:10      0         
Rain_Gage_DATA_Silverberry4 05/22/2014 23:20      0         
Rain_Gage_DATA_Silverberry4 05/22/2014 23:30      0         
Rain_Gage_DATA_Silverberry4 05/22/2014 23:40      0         
Rain_Gage_DATA_Silverberry4 05/22/2014 23:50      0         
Rain_Gage_DATA_Silverberry4 05/23/2014 00:00      0         
Rain_Gage_DATA_Silverberry4 05/23/2014 00:10      0         
Rain_Gage_DATA_Silverberry4 05/23/2014 00:20      0         
Rain_Gage_DATA_Silverberry4 05/23/2014 00:30      0         
Rain_Gage_DATA_Silverberry4 05/23/2014 00:40      0         
Rain_Gage_DATA_Silverberry4 05/23/2014 00:50      0         
Rain_Gage_DATA_Silverberry4 05/23/2014 01:00      0         
Rain_Gage_DATA_Silverberry4 05/23/2014 01:10      0         
Rain_Gage_DATA_Silverberry4 05/23/2014 01:20      0         
Rain_Gage_DATA_Silverberry4 05/23/2014 01:30      0         
Rain_Gage_DATA_Silverberry4 05/23/2014 01:40      0         
Rain_Gage_DATA_Silverberry4 05/23/2014 01:50      0         
Rain_Gage_DATA_Silverberry4 05/23/2014 02:00      0         
Rain_Gage_DATA_Silverberry4 05/23/2014 02:10      0         
Rain_Gage_DATA_Silverberry4 05/23/2014 02:20      0         
Rain_Gage_DATA_Silverberry4 05/23/2014 02:30      0         
Rain_Gage_DATA_Silverberry4 05/23/2014 02:40      0         
Rain_Gage_DATA_Silverberry4 05/23/2014 02:50      0         
Rain_Gage_DATA_Silverberry4 05/23/2014 03:00      0         
Rain_Gage_DATA_Silverberry4 05/23/2014 03:10      0         
Rain_Gage_DATA_Silverberry4 05/23/2014 03:20      0         
Rain_Gage_DATA_Silverberry4 05/23/2014 03:30      0         
Rain_Gage_DATA_Silverberry4 05/23/2014 03:40      0         
Rain_Gage_DATA_Silverberry4 05/23/2014 03:50      0         
Rain_Gage_DATA_Silverberry4 05/23/2014 04:00      0         
Rain_Gage_DATA_Silverberry4 05/23/2014 04:10      0         
Rain_Gage_DATA_Silverberry4 05/23/2014 04:20      0         
Rain_Gage_DATA_Silverberry4 05/23/2014 04:30      0         
Rain_Gage_DATA_Silverberry4 05/23/2014 04:40      0         
Rain_Gage_DATA_Silverberry4 05/23/2014 04:50      0         
Rain_Gage_DATA_Silverberry4 05/23/2014 05:00      0         
Rain_Gage_DATA_Silverberry4 05/23/2014 05:10      0         
Rain_Gage_DATA_Silverberry4 05/23/2014 05:20      0         
Rain_Gage_DATA_Silverberry4 05/23/2014 05:30      0         
Rain_Gage_DATA_Silverberry4 05/23/2014 05:40      0         
Rain_Gage_DATA_Silverberry4 05/23/2014 05:50      0         
Rain_Gage_DATA_Silverberry4 05/23/2014 06:00      0         
Rain_Gage_DATA_Silverberry4 05/23/2014 06:10      0         
Rain_Gage_DATA_Silverberry4 05/23/2014 06:20      0         
Rain_Gage_DATA_Silverberry4 05/23/2014 06:30      0         
Rain_Gage_DATA_Silverberry4 05/23/2014 06:40      0         
Rain_Gage_DATA_Silverberry4 05/23/2014 06:50      0         
Rain_Gage_DATA_Silverberry4 05/23/2014 07:00      0         
Rain_Gage_DATA_Silverberry4 05/23/2014 07:10      0         
Rain_Gage_DATA_Silverberry4 05/23/2014 07:20      0         
Rain_Gage_DATA_Silverberry4 05/23/2014 07:30      0         
Rain_Gage_DATA_Silverberry4 05/23/2014 07:40      0         
Rain_Gage_DATA_Silverberry4 05/23/2014 07:50      0         
Rain_Gage_DATA_Silverberry4 05/23/2014 08:00      0         
Rain_Gage_DATA_Silverberry4 05/23/2014 08:10      0         
Rain_Gage_DATA_Silverberry4 05/23/2014 08:20      0         
Rain_Gage_DATA_Silverberry4 05/23/2014 08:30      0         
Rain_Gage_DATA_Silverberry4 05/23/2014 08:40      0         
Rain_Gage_DATA_Silverberry4 05/23/2014 08:50      0         
Rain_Gage_DATA_Silverberry4 05/23/2014 09:00      0         
Rain_Gage_DATA_Silverberry4 05/23/2014 09:10      0         
Rain_Gage_DATA_Silverberry4 05/23/2014 09:20      0         
Rain_Gage_DATA_Silverberry4 05/23/2014 09:30      0         
Rain_Gage_DATA_Silverberry4 05/23/2014 09:40      0         
Rain_Gage_DATA_Silverberry4 05/23/2014 09:50      0         
Rain_Gage_DATA_Silverberry4 05/23/2014 10:00      0         
Rain_Gage_DATA_Silverberry4 05/23/2014 10:10      0         
Rain_Gage_DATA_Silverberry4 05/23/2014 10:20      0         
Rain_Gage_DATA_Silverberry4 05/23/2014 10:30      0         
Rain_Gage_DATA_Silverberry4 05/23/2014 10:40      0         
Rain_Gage_DATA_Silverberry4 05/23/2014 10:50      0         
Rain_Gage_DATA_Silverberry4 05/23/2014 11:00      0         
Rain_Gage_DATA_Silverberry4 05/23/2014 11:10      0         
Rain_Gage_DATA_Silverberry4 05/23/2014 11:20      0         
Rain_Gage_DATA_Silverberry4 05/23/2014 11:30      0         
Rain_Gage_DATA_Silverberry4 05/23/2014 11:40      0         
Rain_Gage_DATA_Silverberry4 05/23/2014 11:50      0         
Rain_Gage_DATA_Silverberry4 05/23/2014 12:00      0         
Rain_Gage_DATA_Silverberry4 05/23/2014 12:10      0         
Rain_Gage_DATA_Silverberry4 05/23/2014 12:20      0         
Rain_Gage_DATA_Silverberry4 05/23/2014 12:30      0         
Rain_Gage_DATA_Silverberry4 05/23/2014 12:40      0         
Rain_Gage_DATA_Silverberry4 05/23/2014 12:50      0         
Rain_Gage_DATA_Silverberry4 05/23/2014 13:00      0         
Rain_Gage_DATA_Silverberry4 05/23/2014 13:10      0         
Rain_Gage_DATA_Silverberry4 05/23/2014 13:20      0         
Rain_Gage_DATA_Silverberry4 05/23/2014 13:30      0         
Rain_Gage_DATA_Silverberry4 05/23/2014 13:40      0         
Rain_Gage_DATA_Silverberry4 05/23/2014 13:50      0         
Rain_Gage_DATA_Silverberry4 05/23/2014 14:00      0         
Rain_Gage_DATA_Silverberry4 05/23/2014 14:10      0         
Rain_Gage_DATA_Silverberry4 05/23/2014 14:20      0         
Rain_Gage_DATA_Silverberry4 05/23/2014 14:30      0         
Rain_Gage_DATA_Silverberry4 05/23/2014 14:40      0         
Rain_Gage_DATA_Silverberry4 05/23/2014 14:50      0         
Rain_Gage_DATA_Silverberry4 05/23/2014 15:00      0         
Rain_Gage_DATA_Silverberry4 05/23/2014 15:10      0         
Rain_Gage_DATA_Silverberry4 05/23/2014 15:20      0         
Rain_Gage_DATA_Silverberry4 05/23/2014 15:30      0         
Rain_Gage_DATA_Silverberry4 05/23/2014 15:40      0         
Rain_Gage_DATA_Silverberry4 05/23/2014 15:50      0         
Rain_Gage_DATA_Silverberry4 05/23/2014 16:00      0         
Rain_Gage_DATA_Silverberry4 05/23/2014 16:10      0         
Rain_Gage_DATA_Silverberry4 05/23/2014 16:20      0         
Rain_Gage_DATA_Silverberry4 05/23/2014 16:30      0         
Rain_Gage_DATA_Silverberry4 05/23/2014 16:40      0         
Rain_Gage_DATA_Silverberry4 05/23/2014 16:50      0         
Rain_Gage_DATA_Silverberry4 05/23/2014 17:00      0         
Rain_Gage_DATA_Silverberry4 05/23/2014 17:10      0         
Rain_Gage_DATA_Silverberry4 05/23/2014 17:20      0         
Rain_Gage_DATA_Silverberry4 05/23/2014 17:30      0         
Rain_Gage_DATA_Silverberry4 05/23/2014 17:40      0         
Rain_Gage_DATA_Silverberry4 05/23/2014 17:50      0         
Rain_Gage_DATA_Silverberry4 05/23/2014 18:00      0         
Rain_Gage_DATA_Silverberry4 05/23/2014 18:10      0         
Rain_Gage_DATA_Silverberry4 05/23/2014 18:20      0         
Rain_Gage_DATA_Silverberry4 05/23/2014 18:30      0         
Rain_Gage_DATA_Silverberry4 05/23/2014 18:40      0         
Rain_Gage_DATA_Silverberry4 05/23/2014 18:50      0         
Rain_Gage_DATA_Silverberry4 05/23/2014 19:00      0         
Rain_Gage_DATA_Silverberry4 05/23/2014 19:10      0         
Rain_Gage_DATA_Silverberry4 05/23/2014 19:20      0         
Rain_Gage_DATA_Silverberry4 05/23/2014 19:30      0         
Rain_Gage_DATA_Silverberry4 05/23/2014 19:40      0         
Rain_Gage_DATA_Silverberry4 05/23/2014 19:50      0         
Rain_Gage_DATA_Silverberry4 05/23/2014 20:00      0         
Rain_Gage_DATA_Silverberry4 05/23/2014 20:10      0         
Rain_Gage_DATA_Silverberry4 05/23/2014 20:20      0         
Rain_Gage_DATA_Silverberry4 05/23/2014 20:30      0         
Rain_Gage_DATA_Silverberry4 05/23/2014 20:40      0         
Rain_Gage_DATA_Silverberry4 05/23/2014 20:50      0         
Rain_Gage_DATA_Silverberry4 05/23/2014 21:00      0         
Rain_Gage_DATA_Silverberry4 05/23/2014 21:10      0         
Rain_Gage_DATA_Silverberry4 05/23/2014 21:20      0         
Rain_Gage_DATA_Silverberry4 05/23/2014 21:30      0         
Rain_Gage_DATA_Silverberry4 05/23/2014 21:40      0         
Rain_Gage_DATA_Silverberry4 05/23/2014 21:50      0         
Rain_Gage_DATA_Silverberry4 05/23/2014 22:00      0         
Rain_Gage_DATA_Silverberry4 05/23/2014 22:10      0         
Rain_Gage_DATA_Silverberry4 05/23/2014 22:20      0         
Rain_Gage_DATA_Silverberry4 05/23/2014 22:30      0         
Rain_Gage_DATA_Silverberry4 05/23/2014 22:40      0         
Rain_Gage_DATA_Silverberry4 05/23/2014 22:50      0         
Rain_Gage_DATA_Silverberry4 05/23/2014 23:00      0         
Rain_Gage_DATA_Silverberry4 05/23/2014 23:10      0         
Rain_Gage_DATA_Silverberry4 05/23/2014 23:20      0         
Rain_Gage_DATA_Silverberry4 05/23/2014 23:30      0         
Rain_Gage_DATA_Silverberry4 05/23/2014 23:40      0         
Rain_Gage_DATA_Silverberry4 05/23/2014 23:50      0         
Rain_Gage_DATA_Silverberry4 05/24/2014 00:00      0         
Rain_Gage_DATA_Silverberry4 05/24/2014 00:10      0         
Rain_Gage_DATA_Silverberry4 05/24/2014 00:20      0.00787402
Rain_Gage_DATA_Silverberry4 05/24/2014 00:30      0         
Rain_Gage_DATA_Silverberry4 05/24/2014 00:40      0         
Rain_Gage_DATA_Silverberry4 05/24/2014 00:50      0         
Rain_Gage_DATA_Silverberry4 05/24/2014 01:00      0         
Rain_Gage_DATA_Silverberry4 05/24/2014 01:10      0         
Rain_Gage_DATA_Silverberry4 05/24/2014 01:20      0         
Rain_Gage_DATA_Silverberry4 05/24/2014 01:30      0         
Rain_Gage_DATA_Silverberry4 05/24/2014 01:40      0         
Rain_Gage_DATA_Silverberry4 05/24/2014 01:50      0         
Rain_Gage_DATA_Silverberry4 05/24/2014 02:00      0         
Rain_Gage_DATA_Silverberry4 05/24/2014 02:10      0         
Rain_Gage_DATA_Silverberry4 05/24/2014 02:20      0         
Rain_Gage_DATA_Silverberry4 05/24/2014 02:30      0         
Rain_Gage_DATA_Silverberry4 05/24/2014 02:40      0         
Rain_Gage_DATA_Silverberry4 05/24/2014 02:50      0         
Rain_Gage_DATA_Silverberry4 05/24/2014 03:00      0         
Rain_Gage_DATA_Silverberry4 05/24/2014 03:10      0         
Rain_Gage_DATA_Silverberry4 05/24/2014 03:20      0         
Rain_Gage_DATA_Silverberry4 05/24/2014 03:30      0         
Rain_Gage_DATA_Silverberry4 05/24/2014 03:40      0         
Rain_Gage_DATA_Silverberry4 05/24/2014 03:50      0         
Rain_Gage_DATA_Silverberry4 05/24/2014 04:00      0         
Rain_Gage_DATA_Silverberry4 05/24/2014 04:10      0         
Rain_Gage_DATA_Silverberry4 05/24/2014 04:20      0         
Rain_Gage_DATA_Silverberry4 05/24/2014 04:30      0         
Rain_Gage_DATA_Silverberry4 05/24/2014 04:40      0         
Rain_Gage_DATA_Silverberry4 05/24/2014 04:50      0         
Rain_Gage_DATA_Silverberry4 05/24/2014 05:00      0         
Rain_Gage_DATA_Silverberry4 05/24/2014 05:10      0         
Rain_Gage_DATA_Silverberry4 05/24/2014 05:20      0         
Rain_Gage_DATA_Silverberry4 05/24/2014 05:30      0         
Rain_Gage_DATA_Silverberry4 05/24/2014 05:40      0         
Rain_Gage_DATA_Silverberry4 05/24/2014 05:50      0         
Rain_Gage_DATA_Silverberry4 05/24/2014 06:00      0         
Rain_Gage_DATA_Silverberry4 05/24/2014 06:10      0         
Rain_Gage_DATA_Silverberry4 05/24/2014 06:20      0         
Rain_Gage_DATA_Silverberry4 05/24/2014 06:30      0         
Rain_Gage_DATA_Silverberry4 05/24/2014 06:40      0         
Rain_Gage_DATA_Silverberry4 05/24/2014 06:50      0         
Rain_Gage_DATA_Silverberry4 05/24/2014 07:00      0         
Rain_Gage_DATA_Silverberry4 05/24/2014 07:10      0         
Rain_Gage_DATA_Silverberry4 05/24/2014 07:20      0         
Rain_Gage_DATA_Silverberry4 05/24/2014 07:30      0         
Rain_Gage_DATA_Silverberry4 05/24/2014 07:40      0         
Rain_Gage_DATA_Silverberry4 05/24/2014 07:50      0         
Rain_Gage_DATA_Silverberry4 05/24/2014 08:00      0         
Rain_Gage_DATA_Silverberry4 05/24/2014 08:10      0         
Rain_Gage_DATA_Silverberry4 05/24/2014 08:20      0         
Rain_Gage_DATA_Silverberry4 05/24/2014 08:30      0         
Rain_Gage_DATA_Silverberry4 05/24/2014 08:40      0         
Rain_Gage_DATA_Silverberry4 05/24/2014 08:50      0         
Rain_Gage_DATA_Silverberry4 05/24/2014 09:00      0         
Rain_Gage_DATA_Silverberry4 05/24/2014 09:10      0         
Rain_Gage_DATA_Silverberry4 05/24/2014 09:20      0         
Rain_Gage_DATA_Silverberry4 05/24/2014 09:30      0         
Rain_Gage_DATA_Silverberry4 05/24/2014 09:40      0         
Rain_Gage_DATA_Silverberry4 05/24/2014 09:50      0         
Rain_Gage_DATA_Silverberry4 05/24/2014 10:00      0         
Rain_Gage_DATA_Silverberry4 05/24/2014 10:10      0         
Rain_Gage_DATA_Silverberry4 05/24/2014 10:20      0         
Rain_Gage_DATA_Silverberry4 05/24/2014 10:30      0         
Rain_Gage_DATA_Silverberry4 05/24/2014 10:40      0         
Rain_Gage_DATA_Silverberry4 05/24/2014 10:50      0         
Rain_Gage_DATA_Silverberry4 05/24/2014 11:00      0         
Rain_Gage_DATA_Silverberry4 05/24/2014 11:10      0         
Rain_Gage_DATA_Silverberry4 05/24/2014 11:20      0         
Rain_Gage_DATA_Silverberry4 05/24/2014 11:30      0         
Rain_Gage_DATA_Silverberry4 05/24/2014 11:40      0         
Rain_Gage_DATA_Silverberry4 05/24/2014 11:50      0         
Rain_Gage_DATA_Silverberry4 05/24/2014 12:00      0         
Rain_Gage_DATA_Silverberry4 05/24/2014 12:10      0         
Rain_Gage_DATA_Silverberry4 05/24/2014 12:20      0         
Rain_Gage_DATA_Silverberry4 05/24/2014 12:30      0         
Rain_Gage_DATA_Silverberry4 05/24/2014 12:40      0         
Rain_Gage_DATA_Silverberry4 05/24/2014 12:50      0         
Rain_Gage_DATA_Silverberry4 05/24/2014 13:00      0         
Rain_Gage_DATA_Silverberry4 05/24/2014 13:10      0         
Rain_Gage_DATA_Silverberry4 05/24/2014 13:20      0         
Rain_Gage_DATA_Silverberry4 05/24/2014 13:30      0         
Rain_Gage_DATA_Silverberry4 05/24/2014 13:40      0         
Rain_Gage_DATA_Silverberry4 05/24/2014 13:50      0         
Rain_Gage_DATA_Silverberry4 05/24/2014 14:00      0         
Rain_Gage_DATA_Silverberry4 05/24/2014 14:10      0         
Rain_Gage_DATA_Silverberry4 05/24/2014 14:20      0         
Rain_Gage_DATA_Silverberry4 05/24/2014 14:30      0         
Rain_Gage_DATA_Silverberry4 05/24/2014 14:40      0         
Rain_Gage_DATA_Silverberry4 05/24/2014 14:50      0         
Rain_Gage_DATA_Silverberry4 05/24/2014 15:00      0         
Rain_Gage_DATA_Silverberry4 05/24/2014 15:10      0         
Rain_Gage_DATA_Silverberry4 05/24/2014 15:20      0         
Rain_Gage_DATA_Silverberry4 05/24/2014 15:30      0         
Rain_Gage_DATA_Silverberry4 05/24/2014 15:40      0         
Rain_Gage_DATA_Silverberry4 05/24/2014 15:50      0         
Rain_Gage_DATA_Silverberry4 05/24/2014 16:00      0         
Rain_Gage_DATA_Silverberry4 05/24/2014 16:10      0         
Rain_Gage_DATA_Silverberry4 05/24/2014 16:20      0         
Rain_Gage_DATA_Silverberry4 05/24/2014 16:30      0         
Rain_Gage_DATA_Silverberry4 05/24/2014 16:40      0         
Rain_Gage_DATA_Silverberry4 05/24/2014 16:50      0         
Rain_Gage_DATA_Silverberry4 05/24/2014 17:00      0         
Rain_Gage_DATA_Silverberry4 05/24/2014 17:10      0         
Rain_Gage_DATA_Silverberry4 05/24/2014 17:20      0         
Rain_Gage_DATA_Silverberry4 05/24/2014 17:30      0         
Rain_Gage_DATA_Silverberry4 05/24/2014 17:40      0         
Rain_Gage_DATA_Silverberry4 05/24/2014 17:50      0         
Rain_Gage_DATA_Silverberry4 05/24/2014 18:00      0         
Rain_Gage_DATA_Silverberry4 05/24/2014 18:10      0         
Rain_Gage_DATA_Silverberry4 05/24/2014 18:20      0         
Rain_Gage_DATA_Silverberry4 05/24/2014 18:30      0         
Rain_Gage_DATA_Silverberry4 05/24/2014 18:40      0         
Rain_Gage_DATA_Silverberry4 05/24/2014 18:50      0         
Rain_Gage_DATA_Silverberry4 05/24/2014 19:00      0         
Rain_Gage_DATA_Silverberry4 05/24/2014 19:10      0         
Rain_Gage_DATA_Silverberry4 05/24/2014 19:20      0         
Rain_Gage_DATA_Silverberry4 05/24/2014 19:30      0         
Rain_Gage_DATA_Silverberry4 05/24/2014 19:40      0         
Rain_Gage_DATA_Silverberry4 05/24/2014 19:50      0         
Rain_Gage_DATA_Silverberry4 05/24/2014 20:00      0         
Rain_Gage_DATA_Silverberry4 05/24/2014 20:10      0         
Rain_Gage_DATA_Silverberry4 05/24/2014 20:20      0         
Rain_Gage_DATA_Silverberry4 05/24/2014 20:30      0         
Rain_Gage_DATA_Silverberry4 05/24/2014 20:40      0         
Rain_Gage_DATA_Silverberry4 05/24/2014 20:50      0         
Rain_Gage_DATA_Silverberry4 05/24/2014 21:00      0         
Rain_Gage_DATA_Silverberry4 05/24/2014 21:10      0         
Rain_Gage_DATA_Silverberry4 05/24/2014 21:20      0         
Rain_Gage_DATA_Silverberry4 05/24/2014 21:30      0         
Rain_Gage_DATA_Silverberry4 05/24/2014 21:40      0         
Rain_Gage_DATA_Silverberry4 05/24/2014 21:50      0         
Rain_Gage_DATA_Silverberry4 05/24/2014 22:00      0         
Rain_Gage_DATA_Silverberry4 05/24/2014 22:10      0         
Rain_Gage_DATA_Silverberry4 05/24/2014 22:20      0         
Rain_Gage_DATA_Silverberry4 05/24/2014 22:30      0         
Rain_Gage_DATA_Silverberry4 05/24/2014 22:40      0         
Rain_Gage_DATA_Silverberry4 05/24/2014 22:50      0         
Rain_Gage_DATA_Silverberry4 05/24/2014 23:00      0         
Rain_Gage_DATA_Silverberry4 05/24/2014 23:10      0         
Rain_Gage_DATA_Silverberry4 05/24/2014 23:20      0         
Rain_Gage_DATA_Silverberry4 05/24/2014 23:30      0         