[TITLE]
 Newark, Ohio - CSO Study.   i:\nwrkcso\swmm\system.xp

[OPTIONS]
 FLOW_UNITS            CFS
 INFILTRATION          HORTON
 FLOW_ROUTING          DYNWAVE
 START_DATE            04/01/1997
 START_TIME            00:00:00
 REPORT_START_DATE     04/01/1997
 REPORT_START_TIME     00:00:00
 END_DATE              04/02/1997
 END_TIME              00:00:00
 REPORT_STEP           00:00:30
 WET_STEP              01:00:00
 DRY_STEP              24:00:00
 ROUTING_STEP          00:00:30
 ALLOW_PONDING         NO
 INERTIAL_DAMPING      PARTIAL
 VARIABLE_STEP         0.750000
 LENGTHENING_STEP      0.000000
 MIN_SURFAREA          0.000000
 NORMAL_FLOW_LIMITED   FROUDE
 SKIP_STEADY_STATE     NO
 IGNORE_RAINFALL       NO
 FORCE_MAIN_EQUATION   H-W
 LINK_OFFSETS          DEPTH
 COMPATIBILITY         5

[REPORT]
 INPUT YES
 CONTINUITY YES
 FLOWSTATS YES
 CONTROLS NO
 SUBCATCHMENTS ALL
 NODES ALL
 LINKS ALL

[RAINGAGES]
;;                 Rain      Recd.  Snow   Data       Source           Station    Rain  Start
;;Name             Type      Freq.  Catch  Source     Name             ID         Units Date
;;------------------------------------------------------------------------------------------------

[JUNCTIONS]
;;                 Invert     Max.       Init.      Surcharge  Ponded
;;Name             Elev.      Depth      Depth      Depth      Area
;;------------------------------------------------------------------------
  Q94              874.2      15.8       0         
  Q91              870.09     19.01      0         
  Q89              867.95     21.55      0         
  Q83              864.74     13.06      0         
  Q77              863.6      13.3       0         
  Q74              861.8      16.8       0         
  Q70              859.48     16.52      0         
  Q1               856.65     10.85      0         
  P136             853.28     18.52      0         
  Q7               861.97     23.03      0         
  Q5               860.5      22         0         
  H103             838.89     4.1        0         
  H94              837.2      9.3        0         
  H85              828.94     9.85       0         
  H99              840.73     7.05       0         
  H96              838.16     10.1       0         
  H189             855.22     5.78       0         
  H169             847.95     13         0         
  H165             841.8      11.44      0         
  H153             834        8          0         
  H107             824.51     10.05      0         
  I84              826.46     7.2        0         
  H149             830.47     4.89       0         
  H146             827.84     10.02      0         
  I97              835.07     12.4       0         
  I87              830.86     14.4       0         
  L134             873.08     8.27       0         
  L129             856.13     9.52       0         
  L120             846.85     10.92      0         
  L33              818.49     6.08       0         
  L40              815.08     8.17       0         
  M72              859.93     12         0         
  M63              854.27     10         0         
  H238             871.85     4.96       0         
  L131             866.37     11.67      0         
  L41              812.12     9.88       0         
  L43              810.86     13.1       0         
  L2               809        12.65      0         
  I23              818.55     8.16       0         
  I14              815.91     8.33       0         
  I10A             811.46     8.85       0         
  I36              810.46     5.15       0         
  L1A              807.63     8.03       0         
  Y2               807.13     10.47      0         
  Y5               806.31     10.29      0         
  Y11              805.77     9.59       0         
  L53              812.7      11.76      0         
  L76              845.19     10.51      0         
  L54              815.19     10.36      0         
  E139             810.59     21.51      0         
  E136             809.49     15.21      0         
  E134             808.76     14.35      0         
  E131             807.92     13.68      0         
  E129             807.2      15.1       0         
  E128             806.75     14.35      0         
  E126             806.27     19.13      0         
  E125             806.03     16.97      0         
  E104             804.29     12.41      0         
  L101             818.33     7.24       0         
  L95              817.3      5.9        0         
  X27              815.64     7.42       0         
  X25              814.84     4.02       0         
  X20              812.99     9.77       0         
  X18              812.31     15.95      0         
  X17              812.19     16.06      0         
  X12              812.01     14.95      0         
  X7               811.28     15.38      0         
  X3               809.21     9.55       0         
  X98              835.78     8.48       0         
  X95              817.26     8.5        0         
  Y1               808.62     13.57      0         
  Z6               817.95     11.69      0         
  E79A             802        9.8        0         
  E70              800.75     8.5        0         
  E90              804.61     8.89       0         
  E78              803.95     10.55      0         
  I1               803.96     6.65       0         
  E117             804.96     5.4        0         
  E115             804.36     9          0         
  E114             803.76     9.2        0         
  E111             803.1      9.2        0         
  E120             804.62     8.27       0         
  K13              845.75     8.4        0         
  K12              835.65     10         0         
  K3               827.01     12.44      0         
  K1               809.2      6.3        0         
  K8               849.65     8.7        0         
  K4               828.65     10.2       0         
  Z14              837.36     21.78      0         
  Z11              835.39     14.25      0         
  Z16              838.4      19.6       0         
  Z19              840.61     18.03      0         
  Z54              843.14     14.46      0         
  T1               846.83     9.17       0         
  Z72              845.68     10.53      0         
  E141A            811.37     17.33      0         
  L108             824.64     12.73      0         
  L107             823.37     2.8        0         
  L105             821.61     4.06       0         
  E144             812.5      25.9       0         
  S34              834.95     17.65      0         
  S36              834.04     17.06      0         
  S40              830.68     12.22      0         
  R1               830.12     13.28      0         
  P6               825.75     16.75      0         
  P92              846.29     23.41      0         
  P51              842.26     11.74      0         
  P17              833.7      20.3       0         
  R5               847.83     10.17      0         
  P53              851.93     13.87      0         
  P56              857.02     10.48      0         
  V1               816.31     23.79      0         
  E145             814.58     21.42      0         
  V8               843.8      15.1       0         
  M56              849.38     8.8        0         
  M39              843.2      8.18       0         
  M2               841.21     9.14       0         
  M1               830        12.68      0         
  M49              852.63     10.52      0         
  M41              849.82     9.42       0         
  442              854.34     5.16       0         
  443              853        8.2        0         
  Q13              864.93     19.07      0         
  Q8               862.83     19.07      0         
  P100             852.05     18.45      0         
  P96              847.42     17.25      0         
  P167             850.79     11.21      0         
  P170             849.36     14.64      0         
  BB20             860.3      24.3       0         
  BB16             857.9      29.1       0         
  BB15             857.33     28.37      0         
  S1               841.42     13.08      0         
  S8               839.81     13.49      0         
  S28              839.62     15.18      0         
  S30              837.71     12.29      0         
  S31              836.66     18.94      0         
  S33              835.46     17.94      0         
  S12              846.6      13.2       0         
  S9               842.49     9.81       0         
  S14              849.26     15.24      0         
  S20              860.39     7.61       0         
  S24              855.24     9.16       0         
  S83              863.61     6.89       0         
  S86              883.94     9.86       0         
  S85              864.56     6.04       0         
  STWTRPS          798.1      21.9       0         
  E61A             801.78     9.22       0         
  E60              799.58     3.5        0         
  H57              820        7          0         
  H53              816.06     14.94      0         
  H1               802.18     7.72       0         
  H16              810.28     10         0         
  H15              806.24     8.85       0         
  H3               803.29     9.49       0         
  E59              798.16     11.75      0         
  E57              797.93     10.47      0         
  J2               800.11     12.7       0         
  J1               800.32     8.06       0         
  E42              796.65     10.82      0         
  E40              795.6      12.85      0         
  E20              795.18     15.65      0         
  E19A             795.05     15.85      0         
  E13              793.5      12.5       0         
  E5               791.58     10.79      0         
  E4               791.31     8.69       0         
  WWTP2            790.32     15.18      0         
  D50              801.24     10.2       0         
  D1               794.84     14.6       0         
  D7               796.04     13.2       0         
  A31              794.77     14.93      0         
  WWTP3            790.72     14.28      0         
  A48              801.22     13.78      0         
  A26              816.51     26.29      0         
  A2               884.3      4.6        0         
  A3               888        13.5       0         
  A4               885.97     16.93      0         
  A6               870.9      10.4       0         
  A10              827.5      18         0         
  A20              824.31     16.39      0         
  A23              823.59     16.41      0         
  Z164             856.44     7.35       0         
  Z158             852.59     10         0         
  Z157A            850.49     6.8        0         
  Z156A            845.4      12.8       0         
  I98              836.05     12.4       0         
  H72              822.97     8.92       0         
  OF17             805        5          0         
  OF18             814        6          0         
  L6               808.3      11.28      0         
  I111             823        3          0         
  I22              822.13     3.05       0         
  L44              811.64     10.06      0         
  L47              827.09     9.03       0         
  X23              814.2      5.66       0         
  X57              857.66     9.51       0         
  X49              838.65     8.31       0         
  X41              835.6      10         0         
  I1A              803.28     7.89       0         
  E68              802.7      6.3        0         
  Z147             837.62     17.92      0         
  Z148             849.25     5.45       0         
  H88              832.25     10.45      0         
  H90              853.3      4.5        0         
  J7               801.38     8.5        0         
  J3               833.68     20.6       0         
  J10              831.38     7          0         
  J12              857.48     11         0         
  J14              857.13     9.95       0         
  J18              881.41     10.38      0         
  J36              876.23     7.78       0         
  J30              861.16     5.8        0         
  J27              893.23     8.36       0         
  J13              861.88     10         0         
  J6               854.83     10.45      0         
  X35              841.36     6.5        0         
  L88              813.78     9.15       0         
  L84              819.44     4.19       0         
  E107             805.2      17.9       0         
  S71              838.84     11.98      0         
  BB1              847.3      9.4        0         
  BB21             861        24         0         
  BB24             863.45     20.45      0         
  BB32             867.4      18.1       0         
  BB29             865.83     20.07      0         
  BB27             864.9      19.7       0         
  BB40             870.17     10.68      0         
  BB26             864.57     19.55      0         
  AA13             850.98     15.32      0         
  AA9              850.64     9.96       0         
  AA2              849.34     9.16       0         
  AA14             852.45     24.55      0         
  AA18             855.55     17.77      0         
  AA25             867.33     18.27      0         
  AA22             864.75     22.59      0         
  AA19             856.39     17.51      0         
  AA84             856.5      26.6       0         
  AA82             855.82     15.98      0         
  AA52             871.6      17.6       0         
  AA42             870.99     17.11      0         
  AA37             869.7      18.6       0         
  AA51             873.91     8.69       0         
  AA49             873.35     9.65       0         
  AA48             873.16     11.84      0         
  AA46             872.7      11.8       0         
  AA44             871.98     14.82      0         
  AA89             858.11     20.89      0         
  AA87             857.71     24.89      0         
  AA55             873.89     10.21      0         
  AA53             872.3      15.35      0         
  AA123            877.33     10.2       0         
  AA122            876.48     9.48       0         
  AA118            875.54     12.15      0         
  AA105            874.02     13.14      0         
  AA148            866.21     12.79      0         
  AA147            865.24     11.01      0         
  AA145            861.95     9.8        0         
  AA144            861.05     8.95       0         
  AA90             859.1      25.16      0         
  CVPS             870        10         0         
  AA58             874.48     12.32      0         
  AA57             874.22     10.28      0         
  AA20             857.05     17.95      0         
  I9               815.36     6.54       0         
  I8               813.75     7.25       0         
  I4               807.45     4.33       0         
  I35              809.27     7.21       0         
  I32              805.88     5.8        0         
  I29              804.6      6.1        0         
  I114A            809        3          0         
  I31              806        5          0         
  H4               803.97     9.51       0         
  H5               804.8      8.16       0         
  H47              819.56     7.86       0         
  H45              818.83     11.56      0         
  H44              820.1      10.4       0         
  H49              820.95     5.5        0         
  H40              814.31     9.69       0         
  H36              813.26     19.84      0         
  H29              811.08     16.52      0         
  H23              807.17     12.53      0         
  H26              804.3      9.7        0         
  H8               804.03     8.97       0         
  H9               803.62     8.68       0         
  H7               802.91     8.09       0         
  H6               804        8          0         
  H227             804.66     4.27       0         
  H28              807.9      5.8        0         
  H21              819        5          0         
  H34              823.92     10.08      0         
  H31              815.52     13.48      0         
  H275             812.5      15.5       0         
  H38              819.91     10.3       0         
  F117             821.1      4.9        0         
  H65              821.4      9.55       0         
  H60              821        9          0         
  H59              820.9      11.1       0         
  H58              824.5      5.78       0         
  H68              826.1      6.55       0         
  H69              823.68     5.5        0         
  I55              820.2      11.37      0         
  I56              820.71     12.23      0         
  I81              840        4          0         
  I70              825.36     10.2       0         
  I69              824.49     11.29      0         
  I72              834        6.97       0         
  I64              822.57     11.18      0         
  I67              834.12     7.45       0         
  I65              827.05     6.7        0         
  I86              827.5      8.65       0         
  I90              836.39     6.88       0         
  I113             838.5      7.5        0         
  I101             835.99     10.05      0         
  H112             826        4          0         
  H108             825.05     4.55       0         
  H114             826.5      4.06       0         
  H113             826        4          0         
  K14              856.04     7.75       0         
  K25              869.72     8.4        0         
  Z153             854.5      8          0         
  Z146             850        6.37       0         
  Z151             856.74     2.45       0         
  X47              832.32     9.28       0         
  X45              814.31     15.57      0         
  X87              848        10.8       0         
  X86              846.76     10         0         
  X82              841        8.34       0         
  X83              842        8          0         
  X88              848.34     9.27       0         
  X78A             854.5      3.5        0         
  X70              851.71     5.17       0         
  X77              858.55     6.83       0         
  L5               810.13     14.63      0         
  L14              821.76     10         0         
  L12              813.76     9.3        0         
  L18              820.76     5.8        0         
  Q6               861.5      22.3       0         
  Q40              870.57     16.33      0         
  Q37              868.99     13.41      0         
  Q30              867.99     18.31      0         
  L117             846.68     8.65       0         
  L87              819.85     4.5        0         
  L135             820.23     4.6        0         
  L29              834        5.19       0         
  L32A             820.81     4.48       0         
  I99              836.95     4.48       0         
  L37              832.31     7.82       0         
  L35              831.66     8.1        0         
  L38              834.2      7          0         
  V16              848.8      16.5       0         
  V12              845.47     10.23      0         
  M58              854.95     9.22       0         
  M5               842.7      7.88       0         
  M4               842.6      7.4        0         
  P31              858.32     9.25       0         
  P28              848        8.7        0         
  P30              859        8.9        0         
  P76              887        7.3        0         
  P69              883.45     6.55       0         
  P64              869.6      9.4        0         
  P63              862.64     12.36      0         
  S88              891.51     13.69      0         
  S87              890.85     8.25       0         
  H175             852.67     4.3        0         
  H172             850.86     8.6        0         
  H248             851.7      7.03       0         
  B22              873.33     13.42      0         
  B18              872.35     22.47      0         
  B13              871.47     14.53      0         
  B11              869.63     21.07      0         
  A1               860.4      28.2       0         
  AA41             870.39     17.41      0         
  Anomatic         871.5      16.5       0         
  L4               809.75     12.75      0         
  B.Linen          811        12         0         
  C.Cleaners       819.5      6.5        0         
  A37              797.48     13.02      0         
  Components       798        13         0         
  D.Products       868.5      17.5       0         
  BoxUsa           874.5      11.5       0         
  TamrakDary       875        8          0         
  OrganicTeK       875        8          0         
  U.Veneer         874.5      8.7        0         
  Tennaco          843.6      16.4       0         
  Hospital         862.5      22.7       0         
  M.PowerWsh       847.2      9.8        0         
  N.ElctPltg       805        5          0         
  N.MedLab         847.8      9.2        0         
  OSU~#2           848        12         0         
  OSU~#1           853        13         0         
  Rockwell         837        13         0         
  I21              817.67     6.64       0         
  Tectum           817.2      9.8        0         
  P139             857.53     18.47      0         
  Y10              808.7      8.3        0         
  L1AA             807.7      13.92      0         
  W49              817.44     11.46      0         
  W9               816.73     15.42      0         
  X33              838.51     10.65      0         
  X38              837.17     8.79       0         
  cso16a           849.06     6.49       0         
  Z8               829.63     15.21      0         
  E73              803.37     7.63       0         
  E71              801.9      10.1       0         
  P1               817.75     13.75      0         
  X46              826.45     6.7        0         
  X1               808.6      12.76      0         
  Y5A              808.59     8.11       0         
  L53A             816.81     7.69       0         
  L44A             813.72     8.08       0         
  L41A             814.6      7.5        0         
  1623             818        5.47       0         
  L1               814.5      6.55       0         
  L5A              812.1      12.4       0         
  I15              816.86     10.05      0         
  H18              813.75     8.05       0         
  H13              804.48     9.8        0         
  E43              797.24     8.02       0         
  E60A             800.2      15.8       0         
  E63              803.32     4.18       0         
  E67              802.09     6.91       0         
  E69              801.53     7.47       0         
  K1A              806.04     9.96       0         
  X36              815.1      16.9       0         
  X23A             816.3      3.6        0         
  DD93             867.25     11.75      0         
  DD92             856.07     9.63       0         
  DD88             854.71     16.29      0         
  DD84             852        12.9       0         
  DD83             851.52     12.78      0         
  DD82             849.63     12.97      0         
  DD81             848.82     15.38      0         
  DD78             845.93     16.87      0         
  DD75             843.58     15.52      0         
  DD69             841.35     17.05      0         
  DD68             840.85     16.05      0         
  DD66             840        19         0         
  DD65             838.06     18.54      0         
  DD41             835.45     20.55      0         
  DD39             833.4      20.6       0         
  DD20             832.83     23.17      0         
  DD58             844.1      23.9       0         
  DD8              823.37     18.63      0         
  DD5              821.48     20.52      0         
  DD1              819        17         0         
  CC16             814.77     15.33      0         
  CC10             811.27     17.33      0         
  CC5              809.39     15.11      0         
  CC2              807.64     13.66      0         
  F142             805.2      18.5       0         
  F141             803.45     18.5       0         
  F140             803.32     14.98      0         
  F138             802.73     19.77      0         
  G157             818.01     9.79       0         
  G165             817.17     12.33      0         
  G170             816.57     4.53       0         
  G176             815.23     4.38       0         
  F1               812.77     4.34       0         
  F4               811.41     3.2        0         
  F11              809.11     16.5       0         
  F5               806.95     12.59      0         
  H147             825.23     32.97      0         
  F16              832.4      4.9        0         
  F15              823.5      12.4       0         
  F12              812.6      8.3        0         
  H118             817.81     13.79      0         
  H115             816.34     14.76      0         
  F70              803.04     13.46      0         
  H208             834.76     4.74       0         
  H206             831.63     4.47       0         
  E21              796.91     14         0         
  F88              798.38     12.42      0         
  E30              797.01     8.99       0         
  F84              800.61     10.5       0         
  E31A             798.71     6.4        0         
  E26              797.91     10.2       0         
  C12              811.48     13.85      0         
  C11              810.17     16.7       0         
  C99              821.15     18         0         
  C105             825.6      10         0         
  C103             824.24     12.2       0         
  C16              814.22     9.2        0         
  C3               805.7      18.8       0         
  C1               802.13     14.5       0         
  C132             893.22     13.68      0         
  C130             846.32     9.52       0         
  C25              831.32     7.08       0         
  C42              858.09     10.26      0         
  C41              847.7      8.84       0         
  C52              818.84     9.04       0         
  F76              802.36     15.75      0         
  F72              799.9      12.6       0         
  F55              807.3      8.1        0         
  F137             802.41     14.59      0         
  F135             802        21.5       0         
  F132             801.01     15.19      0         
  F74              800.25     16.25      0         
  F157             860.92     16.28      0         
  F153             846.16     15.84      0         
  F151             839.42     10.58      0         
  F149             828.88     11.12      0         
  F144             814.41     11.59      0         
  F170             891.63     9.37       0         
  F168             884.47     8.03       0         
  F167             882.96     11.04      0         
  F160             873.67     14.33      0         
  F157A            861.75     15.25      0         
  F19              830.19     6.61       0         
  F29              827.46     8.74       0         
  F17              825.99     9.11       0         
  F7               810.61     15.79      0         
  F45              827.5      9.9        0         
  F49              814.1      6.2        0         
  H239             850.33     8.35       0         
  H213             847.64     7.36       0         
  H209             843.12     7.6        0         
  H137             838.5      9.43       0         
  H132             834.14     14.26      0         
  H198             839.71     6.83       0         
  H134             836        15.2       0         
  H143             841.41     7.7        0         
  H122             830.37     14.63      0         
  H123             831.27     15.71      0         
  H139             836.96     10.6       0         
  F110             804.9      16.99      0         
  F95              804.73     15.27      0         
  OF7              802.85     5.15       0         
  C199             825.21     7.79       0         
  G137             852.21     19.59      0         
  G135             849.6      18.2       0         
  C53              819.41     7.9        0         
  C55              819.01     5.82       0         
  C63              816.7      16.82      0         
  C60              814.02     13.83      0         
  C57              812.16     12.15      0         
  C58              815.35     7.8        0         
  C61              815.15     7.85       0         
  C66              834.48     7.1        0         
  C101             823.27     13.93      0         
  C106             825.51     9.56       0         
  C49              872.34     6.66       0         
  C44              889.25     7.7        0         
  C37              893.24     9.76       0         
  C171             832.12     13.01      0         
  C170             834.96     13.99      0         
  C137             893.13     5.3        0         
  C139             868.02     8.87       0         
  C140             871.56     10.12      0         
  C158             832.91     8.9        0         
  C169             0          841.26     0         