[TITLE]
;;Project Title/Notes

[OPTIONS]
;;Option             Value
FLOW_UNITS           GPM
INFILTRATION         HORTON
FLOW_ROUTING         DYNWAVE
LINK_OFFSETS         DEPTH
MIN_SLOPE            0
ALLOW_PONDING        YES
SKIP_STEADY_STATE    NO

IGNORE_RAINFALL      YES
IGNORE_SNOWMELT      YES
IGNORE_GROUNDWATER   YES
IGNORE_QUALITY       YES
START_DATE           01/01/2013
START_TIME           00:00:00
REPORT_START_DATE    01/01/2013
REPORT_START_TIME    00:00:00
END_DATE             01/03/2013
END_TIME             06:00:00
SWEEP_START          01/01
SWEEP_END            12/31
DRY_DAYS             5.000000
REPORT_STEP          00:05:00
WET_STEP             00:05:00
DRY_STEP             01:00:00
ROUTING_STEP         0:00:05 

INERTIAL_DAMPING     PARTIAL
NORMAL_FLOW_LIMITED  SLOPE
FORCE_MAIN_EQUATION  H-W
VARIABLE_STEP        0.75
LENGTHENING_STEP     5
MIN_SURFAREA         0
MAX_TRIALS           8
HEAD_TOLERANCE       0.001000
SYS_FLOW_TOL         5
LAT_FLOW_TOL         5
MINIMUM_STEP         0
THREADS              1

[EVAPORATION]
;;Data Source    Parameters
;;-------------- ----------------
CONSTANT         0.0
DRY_ONLY         NO

[JUNCTIONS]
;;Name           Elevation  MaxDepth   InitDepth  SurDepth   Aponded   
;;-------------- ---------- ---------- ---------- ---------- ----------
15506            937.338930 9.300000   0.000000   0.000000   0.000000  
15507            912.881880 8.600000   0.000000   0.000000   0.000000  
15508            914.362490 5.200000   0.000000   0.000000   0.000000  
15509            907.193800 5.700000   0.000000   0.000000   0.000000  
15510            896.280210 8.300000   0.000000   0.000000   0.000000  
15511            898.013660 8.800000   0.000000   0.000000   0.000000  
15512            903.569010 6.300000   0.000000   0.000000   0.000000  
15513            904.330110 6.900000   0.000000   0.000000   0.000000  
15514            916.601990 7.800000   0.000000   0.000000   0.000000  
15515            883.341740 6.600000   0.000000   0.000000   0.000000  
15516            914.790960 5.050000   0.000000   0.000000   0.000000  
15517            903.490210 7.050000   0.000000   0.000000   0.000000  
15518            925.514490 6.600000   0.000000   0.000000   0.000000  
15540            963.956510 12.500000  0.000000   0.000000   0.000000  
15541            962.376590 6.200000   0.000000   0.000000   0.000000  
15542            950.980310 6.600000   0.000000   0.000000   0.000000  
15543            944.489500 5.600000   0.000000   0.000000   0.000000  
15544            959.123590 6.600000   0.000000   0.000000   0.000000  
15545            961.267810 8.300000   0.000000   0.000000   0.000000  
15546            962.500060 7.100000   0.000000   0.000000   0.000000  
15547            974.453240 5.700000   0.000000   0.000000   0.000000  
15548            969.397800 7.000000   0.000000   0.000000   0.000000  
15549            960.309530 7.200000   0.000000   0.000000   0.000000  
15550            943.478460 7.300000   0.000000   0.000000   0.000000  
15557            1002.691440 6.400000   0.000000   0.000000   0.000000  
15558            1022.672130 8.800000   0.000000   0.000000   0.000000  
15559            1027.506270 5.250000   0.000000   0.000000   0.000000  
15560            1021.463870 6.000000   0.000000   0.000000   0.000000  
15561            1027.245460 6.500000   0.000000   0.000000   0.000000  
15562            1031.364120 5.300000   0.000000   0.000000   0.000000  
15563            1100.311430 10.000000  0.000000   0.000000   0.000000  
15564            1096.791390 7.100000   0.000000   0.000000   0.000000  
15565            1113.337770 7.800000   0.000000   0.000000   0.000000  
15566            1106.075920 12.800000  0.000000   0.000000   0.000000  
; BASIN15_JUNCTION
; INVERT ASSUMED
15574            962.287000 10.213000  0.000000   0.000000   0.000000  
15575            926.588790 5.400000   0.000000   0.000000   0.000000  
15576            952.306370 4.300000   0.000000   0.000000   0.000000  
15577            952.730000 3.800000   0.000000   0.000000   0.000000  
; BASIN23_JUNCTION
15578            957.640000 4.599000   0.000000   0.000000   0.000000  
15579            962.041740 4.950000   0.000000   0.000000   0.000000  
15580            963.176370 8.100000   0.000000   0.000000   0.000000  
15581            963.736860 14.400000  0.000000   0.000000   0.000000  
15582            964.108510 18.600000  0.000000   0.000000   0.000000  
15583            968.920130 13.400000  0.000000   0.000000   0.000000  
15584            966.444871 17.799999  0.000000   0.000000   0.000000  
15585            967.344000 15.053310  0.000000   0.000000   0.000000  
15586            985.222400 4.300000   0.000000   0.000000   0.000000  
15587            988.467620 5.200000   0.000000   0.000000   0.000000  
15588            990.255700 4.400000   0.000000   0.000000   0.000000  
15589            995.122900 4.800000   0.000000   0.000000   0.000000  
15590            999.564470 4.600000   0.000000   0.000000   0.000000  
15591            1001.492070 5.100000   0.000000   0.000000   0.000000  
15592            991.568850 3.600000   0.000000   0.000000   0.000000  
15593            982.104050 6.500000   0.000000   0.000000   0.000000  
15594            961.651530 7.550000   0.000000   0.000000   0.000000  
15595            950.220730 5.200000   0.000000   0.000000   0.000000  
15596            929.180970 5.500000   0.000000   0.000000   0.000000  
15597            922.855970 5.150000   0.000000   0.000000   0.000000  
15598            906.812220 4.900000   0.000000   0.000000   0.000000  
15599            882.490240 6.450000   0.000000   0.000000   0.000000  
15600            872.495760 8.550000   0.000000   0.000000   0.000000  
15615            892.708260 5.700000   0.000000   0.000000   0.000000  
15616            926.849400 5.450000   0.000000   0.000000   0.000000  
15617            967.635900 4.950000   0.000000   0.000000   0.000000  
15618            959.844450 5.200000   0.000000   0.000000   0.000000  
15619            944.846350 5.650000   0.000000   0.000000   0.000000  
15620            925.054090 5.300000   0.000000   0.000000   0.000000  
15681            979.658210 6.400000   0.000000   0.000000   0.000000  
15697            1106.832470 10.000000  0.000000   0.000000   0.000000  
15698            1112.390500 9.000000   0.000000   0.000000   0.000000  
15699            1125.960200 7.500000   0.000000   0.000000   0.000000  
15700            1154.307920 7.700000   0.000000   0.000000   0.000000  
15701            1141.441960 7.900000   0.000000   0.000000   0.000000  
15790            980.663820 7.000000   0.000000   0.000000   0.000000  
15791            987.711460 7.100000   0.000000   0.000000   0.000000  
15792            995.263440 6.900000   0.000000   0.000000   0.000000  
15793            982.010160 6.100000   0.000000   0.000000   0.000000  
15794            968.110430 12.200000  0.000000   0.000000   0.000000  
15795            969.438260 8.850000   0.000000   0.000000   0.000000  
15796            970.115690 8.700000   0.000000   0.000000   0.000000  
15797            971.020580 14.100000  0.000000   0.000000   0.000000  
15798            971.808139 17.200001  0.000000   0.000000   0.000000  
15799            973.074900 14.100000  0.000000   0.000000   0.000000  
15799A           972.471000 15.400000  0.000000   0.000000   0.000000  
15800            973.575650 13.600000  0.000000   0.000000   0.000000  
15801            973.965800 12.300000  0.000000   0.000000   0.000000  
15802            974.623990 8.400000   0.000000   0.000000   0.000000  
15803            975.508710 6.300000   0.000000   0.000000   0.000000  
15804            976.935170 7.700000   0.000000   0.000000   0.000000  
15805            977.726170 12.950000  0.000000   0.000000   0.000000  
15806            978.932930 8.800000   0.000000   0.000000   0.000000  
15807            980.094820 6.700000   0.000000   0.000000   0.000000  
15809            990.083130 4.400000   0.000000   0.000000   0.000000  
15845            1006.462830 8.700000   0.000000   0.000000   0.000000  
15846            1004.426980 9.950000   0.000000   0.000000   0.000000  
15847            1025.131690 4.950000   0.000000   0.000000   0.000000  
15848            982.808060 7.350000   0.000000   0.000000   0.000000  
15849            971.535980 8.100000   0.000000   0.000000   0.000000  
15850            963.005670 7.500000   0.000000   0.000000   0.000000  
15851            990.573010 9.000000   0.000000   0.000000   0.000000  
15852            1002.499660 8.900000   0.000000   0.000000   0.000000  
15853            1002.459330 12.400000  0.000000   0.000000   0.000000  
15854            994.765740 7.300000   0.000000   0.000000   0.000000  
15855            1010.627090 5.400000   0.000000   0.000000   0.000000  
15856            1008.862720 5.500000   0.000000   0.000000   0.000000  
15857            1006.418900 4.900000   0.000000   0.000000   0.000000  
15858            1000.987690 6.300000   0.000000   0.000000   0.000000  
15859            1001.885810 8.300000   0.000000   0.000000   0.000000  
15862            1012.851290 4.750000   0.000000   0.000000   0.000000  
15885            991.412280 3.700000   0.000000   0.000000   0.000000  
15886            982.858890 4.600000   0.000000   0.000000   0.000000  
15887            980.184740 3.500000   0.000000   0.000000   0.000000  
15888            981.044410 5.500000   0.000000   0.000000   0.000000  
15889            989.157000 6.150090   0.000000   0.000000   0.000000  
15890            982.440350 5.350000   0.000000   0.000000   0.000000  
15891            982.776040 8.320000   0.000000   0.000000   0.000000  
15892            991.250350 4.100000   0.000000   0.000000   0.000000  
15893            995.710740 4.600000   0.000000   0.000000   0.000000  
15894            1000.904310 4.600000   0.000000   0.000000   0.000000  
15895            1001.816350 6.750000   0.000000   0.000000   0.000000  
15896            991.286990 4.100000   0.000000   0.000000   0.000000  
15897            987.119890 4.000000   0.000000   0.000000   0.000000  
15898            1002.490200 3.750000   0.000000   0.000000   0.000000  
; BASIN23_JUNCTION
15900            998.368000 6.195000   0.000000   0.000000   0.000000  
15901            996.698020 4.400000   0.000000   0.000000   0.000000  
15902            994.912440 7.100000   0.000000   0.000000   0.000000  
15903            989.462340 7.150000   0.000000   0.000000   0.000000  
15904            1003.686670 7.450000   0.000000   0.000000   0.000000  
16050            971.984660 7.900000   0.000000   0.000000   0.000000  
16051            970.486710 9.050000   0.000000   0.000000   0.000000  
16052            984.881160 13.000000  0.000000   0.000000   0.000000  
16053            994.811540 3.700000   0.000000   0.000000   0.000000  
16054            981.689510 7.650000   0.000000   0.000000   0.000000  
16055            967.456860 6.650000   0.000000   0.000000   0.000000  
16056            943.673050 6.750000   0.000000   0.000000   0.000000  
16057            978.259710 10.300000  0.000000   0.000000   0.000000  
16058            962.634650 6.700000   0.000000   0.000000   0.000000  
16059            946.190670 7.950000   0.000000   0.000000   0.000000  
16060            942.520730 8.200000   0.000000   0.000000   0.000000  
16061            925.283970 6.900000   0.000000   0.000000   0.000000  
16062            900.257811 16.299999  0.000000   0.000000   0.000000  
16063            935.462870 5.150000   0.000000   0.000000   0.000000  
16064            950.885650 6.450000   0.000000   0.000000   0.000000  
16065            981.468170 5.800000   0.000000   0.000000   0.000000  
16066            966.174200 8.500000   0.000000   0.000000   0.000000  
16067            954.376200 7.700000   0.000000   0.000000   0.000000  
16068            932.865170 6.000000   0.000000   0.000000   0.000000  
16069            903.735220 14.600000  0.000000   0.000000   0.000000  
16070            942.984660 5.400000   0.000000   0.000000   0.000000  
16071            953.699310 5.000000   0.000000   0.000000   0.000000  
16072            956.320550 5.600000   0.000000   0.000000   0.000000  
16073            958.924130 5.750000   0.000000   0.000000   0.000000  
16074            966.029540 4.500000   0.000000   0.000000   0.000000  
16075            986.027070 5.900000   0.000000   0.000000   0.000000  
16076            978.099080 6.400000   0.000000   0.000000   0.000000  
16077            961.754720 13.700000  0.000000   0.000000   0.000000  
16078            963.109520 5.500000   0.000000   0.000000   0.000000  
16079            963.236910 6.400000   0.000000   0.000000   0.000000  
16080            945.999660 6.200000   0.000000   0.000000   0.000000  
16081            935.967690 11.500000  0.000000   0.000000   0.000000  
16082            950.160050 9.100000   0.000000   0.000000   0.000000  
16083            946.100660 8.200000   0.000000   0.000000   0.000000  
16084            934.302220 10.500000  0.000000   0.000000   0.000000  
16085            927.548900 8.500000   0.000000   0.000000   0.000000  
16086            941.620710 6.700000   0.000000   0.000000   0.000000  
; INVERT BASED ON CURRENT GIS
16087            954.200000 6.648430   0.000000   0.000000   0.000000  
16088            954.522000 5.100190   0.000000   0.000000   0.000000  
16089            964.332350 5.700000   0.000000   0.000000   0.000000  
16090            970.663860 7.000000   0.000000   0.000000   0.000000  
16091            976.741300 4.900000   0.000000   0.000000   0.000000  
16092            987.926030 7.950000   0.000000   0.000000   0.000000  
16093            994.554930 6.150000   0.000000   0.000000   0.000000  
16094            1013.598990 6.300000   0.000000   0.000000   0.000000  
16095            1014.874800 7.000000   0.000000   0.000000   0.000000  
16096            992.032590 2.600000   0.000000   0.000000   0.000000  
16097            976.534400 6.100000   0.000000   0.000000   0.000000  
16098            975.392120 6.200000   0.000000   0.000000   0.000000  
16099            950.362660 6.600000   0.000000   0.000000   0.000000  
16100            952.032450 10.100000  0.000000   0.000000   0.000000  
16101            953.450250 6.850000   0.000000   0.000000   0.000000  
16102            954.564750 4.600000   0.000000   0.000000   0.000000  
16103            960.449180 7.800000   0.000000   0.000000   0.000000  
16104            952.712440 4.400000   0.000000   0.000000   0.000000  
16105            966.895440 7.100000   0.000000   0.000000   0.000000  
17168            970.769810 5.800000   0.000000   0.000000   0.000000  
17169            967.619470 6.100000   0.000000   0.000000   0.000000  
17170            969.087900 7.200000   0.000000   0.000000   0.000000  
17171            974.853050 6.400000   0.000000   0.000000   0.000000  
17172            982.868660 6.600000   0.000000   0.000000   0.000000  
17173            986.963240 6.900000   0.000000   0.000000   0.000000  
17174            994.422720 5.800000   0.000000   0.000000   0.000000  
17224            1006.490790 3.300000   0.000000   0.000000   0.000000  
17225            1007.687200 4.600000   0.000000   0.000000   0.000000  
17226            1003.717990 9.400000   0.000000   0.000000   0.000000  
17227            1002.025710 8.200000   0.000000   0.000000   0.000000  
17228            1001.648660 7.800000   0.000000   0.000000   0.000000  
17229            1001.074070 7.700000   0.000000   0.000000   0.000000  
17230            999.868600 7.400000   0.000000   0.000000   0.000000  
17232            975.433420 5.200000   0.000000   0.000000   0.000000  
17233            964.264270 7.400000   0.000000   0.000000   0.000000  
17234            1013.143450 5.800000   0.000000   0.000000   0.000000  
17290            998.548320 5.200000   0.000000   0.000000   0.000000  
17291            985.656820 8.300000   0.000000   0.000000   0.000000  
17292            979.933490 8.900000   0.000000   0.000000   0.000000  
17293            975.394530 8.250000   0.000000   0.000000   0.000000  
17294            969.600610 8.150000   0.000000   0.000000   0.000000  
17295            965.751270 8.000000   0.000000   0.000000   0.000000  
17296            969.583690 7.650000   0.000000   0.000000   0.000000  
17297            973.084190 7.950000   0.000000   0.000000   0.000000  
17298            980.815760 6.900000   0.000000   0.000000   0.000000  
17299            987.714840 6.800000   0.000000   0.000000   0.000000  
17300            1012.815450 5.600000   0.000000   0.000000   0.000000  
17302            1008.714290 1.850000   0.000000   0.000000   0.000000  
17303            1007.507940 3.800000   0.000000   0.000000   0.000000  
17304            1006.568790 5.500000   0.000000   0.000000   0.000000  
17676            992.068210 5.250000   0.000000   0.000000   0.000000  
17677            981.941300 5.650000   0.000000   0.000000   0.000000  
17678            977.516530 5.400000   0.000000   0.000000   0.000000  
17679            973.702250 4.950000   0.000000   0.000000   0.000000  
17680            978.637200 5.150000   0.000000   0.000000   0.000000  
17690            982.523340 7.900000   0.000000   0.000000   0.000000  
17691            997.565380 4.650000   0.000000   0.000000   0.000000  
17788            996.952320 5.700000   0.000000   0.000000   0.000000  
17888            990.721560 5.650000   0.000000   0.000000   0.000000  
17889            992.762750 6.550000   0.000000   0.000000   0.000000  
17890            994.124700 9.100000   0.000000   0.000000   0.000000  
17891            995.015720 5.200000   0.000000   0.000000   0.000000  
18011            975.593150 9.900000   0.000000   0.000000   0.000000  
18012            975.301690 10.500000  0.000000   0.000000   0.000000  
18013            971.130720 6.000000   0.000000   0.000000   0.000000  
18014            971.285540 6.000000   0.000000   0.000000   0.000000  
18015            972.555660 5.200000   0.000000   0.000000   0.000000  
18016            973.489860 5.050000   0.000000   0.000000   0.000000  
18018            982.545640 4.700000   0.000000   0.000000   0.000000  
18020            990.725990 6.200000   0.000000   0.000000   0.000000  
; BASIN23_JUNCTION
; ALL INFO ASSUMED
18021            990.726000 13.274000  0.000000   0.000000   0.000000  
; BASIN 23_JUNCTION
; ALL INFO ASSUMED
18022            990.726000 13.274000  0.000000   0.000000   0.000000  
; BASIN23_JUNCTION
; ALL INFO ASSUMED
18023            990.726000 13.274000  0.000000   0.000000   0.000000  
18101            984.380000 4.750630   0.000000   0.000000   0.000000  
; BASIN23_JUNCTION
; INVERT INERPOLATED, RIM ASSUMED
18102            977.903000 3.097000   0.000000   0.000000   0.000000  
18103            972.170530 5.300000   0.000000   0.000000   0.000000  
18104            970.871840 5.550000   0.000000   0.000000   0.000000  
18105            970.231060 6.950000   0.000000   0.000000   0.000000  
18106            977.304410 3.800000   0.000000   0.000000   0.000000  
18107            980.420580 4.600000   0.000000   0.000000   0.000000  
18108            976.020910 8.800000   0.000000   0.000000   0.000000  
18109            977.300050 5.500000   0.000000   0.000000   0.000000  
18110            978.374440 2.750000   0.000000   0.000000   0.000000  
18111            978.492730 3.000000   0.000000   0.000000   0.000000  
18112            967.006450 10.900000  0.000000   0.000000   0.000000  
18113            968.729860 7.700000   0.000000   0.000000   0.000000  
18115            974.607200 5.900000   0.000000   0.000000   0.000000  
18116            983.273500 7.700000   0.000000   0.000000   0.000000  
18117            994.520340 6.000000   0.000000   0.000000   0.000000  
18273            969.577300 6.550000   0.000000   0.000000   0.000000  
18274            987.088810 3.650000   0.000000   0.000000   0.000000  
18275            991.191030 3.850000   0.000000   0.000000   0.000000  
18276            993.457890 5.620000   0.000000   0.000000   0.000000  
18277            989.182310 7.450000   0.000000   0.000000   0.000000  
18278            999.901370 5.400000   0.000000   0.000000   0.000000  
18279            987.353500 10.950000  0.000000   0.000000   0.000000  
18280            985.511330 13.900000  0.000000   0.000000   0.000000  
18281            984.121740 8.750000   0.000000   0.000000   0.000000  
18282            985.113220 5.970000   0.000000   0.000000   0.000000  
18283            988.628340 7.700000   0.000000   0.000000   0.000000  
18284            990.837750 5.570000   0.000000   0.000000   0.000000  
18285            993.713370 7.300000   0.000000   0.000000   0.000000  
18286            995.668450 6.550000   0.000000   0.000000   0.000000  
18290            977.292480 6.250000   0.000000   0.000000   0.000000  
18511            981.012630 7.000000   0.000000   0.000000   0.000000  
18512            956.656470 7.400000   0.000000   0.000000   0.000000  
18513            1010.126670 4.750000   0.000000   0.000000   0.000000  
18514            1014.822080 7.100000   0.000000   0.000000   0.000000  
18515            1031.223320 6.950000   0.000000   0.000000   0.000000  
18516            1038.447280 7.100000   0.000000   0.000000   0.000000  
18518            1047.285950 9.450000   0.000000   0.000000   0.000000  
18519            1085.314340 6.600000   0.000000   0.000000   0.000000  
18705            951.792310 6.800000   0.000000   0.000000   0.000000  
18706            942.323390 7.850000   0.000000   0.000000   0.000000  
18707            944.654480 4.150000   0.000000   0.000000   0.000000  
18708            945.542680 5.000000   0.000000   0.000000   0.000000  
18709            946.329770 6.050000   0.000000   0.000000   0.000000  
18710            953.618400 6.050000   0.000000   0.000000   0.000000  
18711            962.604010 7.700000   0.000000   0.000000   0.000000  
18712            973.501330 7.550000   0.000000   0.000000   0.000000  
18713            981.578330 10.200000  0.000000   0.000000   0.000000  
18714            996.243380 6.600000   0.000000   0.000000   0.000000  
18715            1008.414640 5.500000   0.000000   0.000000   0.000000  
18716            994.888620 4.600000   0.000000   0.000000   0.000000  
18717            981.580000 7.700000   0.000000   0.000000   0.000000  
18718            978.003000 7.599610   0.000000   0.000000   0.000000  
18719            972.836620 7.400000   0.000000   0.000000   0.000000  
18720            961.374730 8.500000   0.000000   0.000000   0.000000  
18721            952.813400 6.650000   0.000000   0.000000   0.000000  
18722            943.290420 6.100000   0.000000   0.000000   0.000000  
18723            942.450090 6.100000   0.000000   0.000000   0.000000  
18724            940.748530 13.700000  0.000000   0.000000   0.000000  
18998            975.094270 5.500000   0.000000   0.000000   0.000000  
18999            980.338230 2.600000   0.000000   0.000000   0.000000  
19010            972.581180 7.600000   0.000000   0.000000   0.000000  
19011            972.356010 7.500000   0.000000   0.000000   0.000000  
19012            984.472520 5.100000   0.000000   0.000000   0.000000  
19013            990.398000 6.300460   0.000000   0.000000   0.000000  
19014            970.103000 8.250000   0.000000   0.000000   0.000000  
19017            970.757950 8.050000   0.000000   0.000000   0.000000  
19206            901.754430 5.300000   0.000000   0.000000   0.000000  
19207            919.648770 5.850000   0.000000   0.000000   0.000000  
19209            938.846310 5.800000   0.000000   0.000000   0.000000  
19211            968.187620 4.700000   0.000000   0.000000   0.000000  
19212            954.256240 5.750000   0.000000   0.000000   0.000000  
19213            906.917450 7.800000   0.000000   0.000000   0.000000  
19214            905.305170 13.500000  0.000000   0.000000   0.000000  
19215            980.178350 9.100000   0.000000   0.000000   0.000000  
19216            981.547530 3.700000   0.000000   0.000000   0.000000  
19217            961.559770 7.500000   0.000000   0.000000   0.000000  
19241            955.542660 19.500000  0.000000   0.000000   0.000000  
19242            985.519800 12.500000  0.000000   0.000000   0.000000  
19243            950.342570 6.700000   0.000000   0.000000   0.000000  
19270            983.862730 22.950000  0.000000   0.000000   0.000000  
19273            1000.936310 8.300000   0.000000   0.000000   0.000000  
19335            1008.980550 2.200000   0.000000   0.000000   0.000000  
19344            1054.462580 7.300000   0.000000   0.000000   0.000000  
19345            1044.860820 6.700000   0.000000   0.000000   0.000000  
19346            1039.879270 7.400000   0.000000   0.000000   0.000000  
19347            1073.092050 5.900000   0.000000   0.000000   0.000000  
19348            1079.528540 6.100000   0.000000   0.000000   0.000000  
19349            1085.064200 3.500000   0.000000   0.000000   0.000000  
19350            1092.555900 7.700000   0.000000   0.000000   0.000000  
19375            989.845120 9.400000   0.000000   0.000000   0.000000  
19376            986.245350 13.900000  0.000000   0.000000   0.000000  
19377            1010.723660 5.300000   0.000000   0.000000   0.000000  
; ALL INFO ASSUMED
19378            1010.724000 8.276000   0.000000   0.000000   0.000000  
19379            936.397350 5.800000   0.000000   0.000000   0.000000  
19380            924.642380 8.400000   0.000000   0.000000   0.000000  
19381            922.402220 7.000000   0.000000   0.000000   0.000000  
19382            911.807370 11.450000  0.000000   0.000000   0.000000  
19383            955.272980 6.400000   0.000000   0.000000   0.000000  
19384            964.795080 7.600000   0.000000   0.000000   0.000000  
19385            977.210720 8.800000   0.000000   0.000000   0.000000  
19386            985.208600 9.600000   0.000000   0.000000   0.000000  
19387            953.520880 15.100000  0.000000   0.000000   0.000000  
19388            960.679000 5.500000   0.000000   0.000000   0.000000  
19388A           961.118900 4.900000   0.000000   0.000000   0.000000  
19389            961.365240 6.300000   0.000000   0.000000   0.000000  
19389A           962.124500 7.600000   0.000000   0.000000   0.000000  
19389B           963.583070 5.200000   0.000000   0.000000   0.000000  
19390            979.212700 5.900000   0.000000   0.000000   0.000000  
19391            985.719960 8.100000   0.000000   0.000000   0.000000  
19392            992.291800 8.900000   0.000000   0.000000   0.000000  
19393            997.241190 7.500000   0.000000   0.000000   0.000000  
; INVERT AND RIM ASSUMED
19394            997.241000 2.759000   0.000000   0.000000   0.000000  
19395            966.814040 5.200000   0.000000   0.000000   0.000000  
19396            970.850280 3.800000   0.000000   0.000000   0.000000  
19397            989.609110 7.700000   0.000000   0.000000   0.000000  
; ALL INFO ASSUMED
19398            958.320000 49.680000  0.000000   0.000000   0.000000  
19399            954.504820 14.250000  0.000000   0.000000   0.000000  
; INVERT INTERPOLATED, RIM ASUMED
19403            958.320000 3.680000   0.000000   0.000000   0.000000  
; RIM ASSUMED
19404            960.127000 8.628000   0.000000   0.000000   0.000000  
19405            924.131610 5.600000   0.000000   0.000000   0.000000  
19407            926.488440 6.500000   0.000000   0.000000   0.000000  
19408            933.156000 17.500000  0.000000   0.000000   0.000000  
19409            948.424040 18.400000  0.000000   0.000000   0.000000  
19410            965.235280 17.100000  0.000000   0.000000   0.000000  
19411            983.763530 14.800000  0.000000   0.000000   0.000000  
19412            1001.594650 15.300000  0.000000   0.000000   0.000000  
19413            1015.736670 9.700000   0.000000   0.000000   0.000000  
19414            1019.954630 8.000000   0.000000   0.000000   0.000000  
19415            927.084050 6.400000   0.000000   0.000000   0.000000  
19416            886.533710 6.800000   0.000000   0.000000   0.000000  
19417            881.377840 5.300000   0.000000   0.000000   0.000000  
19423            923.474380 8.200000   0.000000   0.000000   0.000000  
19424            912.468270 11.700000  0.000000   0.000000   0.000000  
19425            918.349429 30.200001  0.000000   0.000000   0.000000  
19426            907.635550 6.400000   0.000000   0.000000   0.000000  
; INVERT INERPOLATED
19523            1050.173000 8.876600   0.000000   0.000000   0.000000  
19666            960.937300 5.700000   0.000000   0.000000   0.000000  
19667            967.582060 11.500000  0.000000   0.000000   0.000000  
19668            990.972250 5.000000   0.000000   0.000000   0.000000  
19669            1016.144840 5.100000   0.000000   0.000000   0.000000  
19670            976.346680 6.400000   0.000000   0.000000   0.000000  
19671            981.841520 8.800000   0.000000   0.000000   0.000000  
19672            985.610650 8.500000   0.000000   0.000000   0.000000  
19673            975.712750 5.200000   0.000000   0.000000   0.000000  
19674            1104.427090 15.750000  0.000000   0.000000   0.000000  
19675            1035.007000 17.200390  0.000000   0.000000   0.000000  
19676            1051.921200 8.700000   0.000000   0.000000   0.000000  
19677            1066.827460 6.600000   0.000000   0.000000   0.000000  
19678            1081.440550 9.700000   0.000000   0.000000   0.000000  
19679            1092.520950 6.500000   0.000000   0.000000   0.000000  
19680            1048.004930 6.200000   0.000000   0.000000   0.000000  
19681            1034.318900 6.200000   0.000000   0.000000   0.000000  