[TITLE]
;;Project Title/Notes

[OPTIONS]
;;Option             Value
FLOW_UNITS           CMS
INFILTRATION         GREEN_AMPT
FLOW_ROUTING         DYNWAVE
LINK_OFFSETS         DEPTH
MIN_SLOPE            0
ALLOW_PONDING        NO
SKIP_STEADY_STATE    NO

START_DATE           07/07/2009
START_TIME           00:00:00
REPORT_START_DATE    07/07/2009
REPORT_START_TIME    00:00:00
END_DATE             07/12/2009
END_TIME             23:00:00
SWEEP_START          01/01
SWEEP_END            12/31
DRY_DAYS             0
REPORT_STEP          00:05:00
WET_STEP             00:00:30
DRY_STEP             00:05:00
ROUTING_STEP         0:00:30 

INERTIAL_DAMPING     PARTIAL
NORMAL_FLOW_LIMITED  BOTH
FORCE_MAIN_EQUATION  H-W
VARIABLE_STEP        0.75
LENGTHENING_STEP     0
MIN_SURFAREA         0
MAX_TRIALS           0
HEAD_TOLERANCE       0
SYS_FLOW_TOL         5
LAT_FLOW_TOL         5
MINIMUM_STEP         0.5
THREADS              1

[EVAPORATION]
;;Data Source    Parameters
;;-------------- ----------------
CONSTANT         0.0
RECOVERY         Modified_Infiltration
DRY_ONLY         NO

[RAINGAGES]
;;Name           Format    Interval SCF      Source    
;;-------------- --------- ------ ------ ----------
Precip60-09      INTENSITY 0:05     1.0      TIMESERIES 100YR24HR       
Precip60-09+Irr_S7 INTENSITY 0:05     1.0      TIMESERIES 100YR24HR       

[SUBCATCHMENTS]
;;Name           Rain Gage        Outlet           Area     %Imperv  Width    %Slope   CurbLen  SnowPack        
;;-------------- ---------------- ---------------- -------- -------- -------- -------- -------- ----------------
SF_NDCIA         Precip60-09      SF_PERV          16.433   100      1650     1.0      0                        
SF_DCIA          Precip60-09      Cell_E_FB        3.566    100      360      1.0      0                        
SF_PERV          Precip60-09      Cell_E_Road_Perv 24.580   0        2460     1.0      0                        
COMM_DCIA        Precip60-09      Cell_E_FB        0.235    100      24       1.0      0                        
Pond             Precip60-09      Cell_E_Pond      4.697    100      470      1.0      0                        
COMM_PERV        Precip60-09      Cell_E_FB        0.141    0        14       1.0      0                        
COMM_NDCIA       Precip60-09      COMM_PERV        0.564    100      54       1.0      0                        
INST_Fields_IRR  Precip60-09+Irr_S7 Cell_E_Road_IMP  3.04     0        300      1.0      0                        
INST_PERV        Precip60-09      Cell_E_Road_IMP  2.573    0        260      1.0      0                        
SSA_DCIA         Precip60-09      Cell_E_FB        3.795    100      380      1.0      0                        
SSA_PERV         Precip60-09      Cell_E_FB        2.277    0        230      1.0      0                        
SSA_NDCIA        Precip60-09      SSA_PERV         9.108    100      910      1.0      0                        
INST_NDCIA       Precip60-09      INST_PERV        1.267    100      125      1.0      0                        
MF_PERV          Precip60-09      Cell_E_Road_Perv 1.274    0        130      1.0      0                        
MF_NDCIA         Precip60-09      MF_PERV          2.075    100      210      1.0      0                        
MF_DCIA          Precip60-09      Cell_E_FB        0.291    100      29       1.0      0                        
PUL_IRR          Precip60-09+Irr_S7 Cell_E_Pond      1.38     0        140      1.0      0                        
Cell_E_Road_IMP  Precip60-09      Cell_E_FB        21.764   100      2180     1.0      0                        
Cell_E_Road_NDCIA Precip60-09      Cell_E_Road_Perv .852     100      85       1.0      0                        
MR_PERV_IRR      Precip60-09+Irr_S7 Cell_E_Road_Perv 4.22     0        420      1.0      0                        
LRT_PERV         Precip60-09      Cell_E_FB        0.306    0        30       1        0                        
LRT_NDCIA        Precip60-09      LRT_PERV         0.613    100      60       1.0      0                        
LRT_DCIA         Precip60-09      Cell_E_FB        .306     100      30       1.0      0                        
Cell_E_Road_Perv Precip60-09      Cell_E_Road_IMP  6.834    0        680      1.0      0                        

[SUBAREAS]
;;Subcatchment   N-Imperv   N-Perv     S-Imperv   S-Perv     PctZero    RouteTo    PctRouted 
;;-------------- ---------- ---------- ---------- ---------- ---------- ---------- ----------
SF_NDCIA         0.014      0.25       1.6        3.2        0          OUTLET    
SF_DCIA          0.014      0.25       1.6        3.2        0          OUTLET    
SF_PERV          0.014      0.25       1.6        3.2        0          OUTLET    
COMM_DCIA        0.014      0.25       1.6        3.2        0          OUTLET    
Pond             0.014      0.25       1.6        3.2        100        OUTLET    
COMM_PERV        0.014      0.25       1.6        3.2        0          OUTLET    
COMM_NDCIA       0.014      0.25       1.6        3.2        0          OUTLET    
INST_Fields_IRR  0.014      0.25       1.6        3.2        0          OUTLET    
INST_PERV        0.014      0.25       1.6        3.2        0          OUTLET    
SSA_DCIA         0.014      0.25       1.6        3.2        0          OUTLET    
SSA_PERV         0.014      0.25       1.6        3.2        0          OUTLET    
SSA_NDCIA        0.014      0.25       1.6        3.2        0          OUTLET    
INST_NDCIA       0.014      0.25       1.6        3.2        0          OUTLET    
MF_PERV          0.014      0.25       1.6        3.2        0          OUTLET    
MF_NDCIA         0.014      0.25       1.6        3.2        0          OUTLET    
MF_DCIA          0.014      0.25       1.6        3.2        0          OUTLET    
PUL_IRR          0.014      0.25       1.6        3.2        0          OUTLET    
Cell_E_Road_IMP  0.014      0.25       1.6        3.2        0          OUTLET    
Cell_E_Road_NDCIA 0.014      0.25       1.6        3.2        0          OUTLET    
MR_PERV_IRR      0.014      0.25       1.6        3.2        0          OUTLET    
LRT_PERV         0.014      0.25       1.6        3.2        0          OUTLET    
LRT_NDCIA        0.014      0.25       1.6        3.2        0          OUTLET    
LRT_DCIA         0.014      0.25       1.6        3.2        0          OUTLET    
Cell_E_Road_Perv 0.014      0.25       1.6        3.2        0          OUTLET    

[INFILTRATION]
;;Subcatchment   Suction    Ksat       IMD       
;;-------------- ---------- ---------- ----------
SF_NDCIA         170        6.604      0.135     
SF_DCIA          170        6.604      0.135     
SF_PERV          170        6.604      0.135     
COMM_DCIA        170        6.604      0.135     
Pond             170        6.604      0.135     
COMM_PERV        170        6.604      0.135     
COMM_NDCIA       170        6.604      0.135     
INST_Fields_IRR  170        6.604      0.135     
INST_PERV        170        6.604      0.135     
SSA_DCIA         170        6.604      0.135     
SSA_PERV         170        6.604      0.135     
SSA_NDCIA        170        6.604      0.135     
INST_NDCIA       170        6.604      0.135     
MF_PERV          170        6.604      0.135     
MF_NDCIA         170        6.604      0.135     
MF_DCIA          170        6.604      0.135     
PUL_IRR          170        6.604      0.135     
Cell_E_Road_IMP  170        6.604      0.135     
Cell_E_Road_NDCIA 170        6.604      0.135     
MR_PERV_IRR      170        6.604      0.135     
LRT_PERV         170        6.604      0.135     
LRT_NDCIA        170        6.604      0.135     
LRT_DCIA         170        6.604      0.135     
Cell_E_Road_Perv 170        6.604      0.135     

[LID_CONTROLS]
;;Name           Type/Layer Parameters
;;-------------- ---------- ----------
AbsLand7.5in     BC
AbsLand7.5in     SURFACE    0.001      0.05       0.25       0.5        10        
AbsLand7.5in     SOIL       190.5      .501       0.284      0.135      6.604      8          170       
AbsLand7.5in     STORAGE    0          0          0.254      0         
AbsLand7.5in     DRAIN      0          0.5        0          6         

AbsLand12in      BC
AbsLand12in      SURFACE    0.001      0.05       0.25       0.5        10        
AbsLand12in      SOIL       300        0.501      0.284      0.135      6.604      8          170       
AbsLand12in      STORAGE    0          0          .254       0         
AbsLand12in      DRAIN      0          0.5        0          6         

Bioswale         BC
Bioswale         SURFACE    300        0.05       0.25       0.5        10        
Bioswale         SOIL       600        0.437      0.143      0.052      5.994      10         61        
Bioswale         STORAGE    300        0.5        0.508      824       
Bioswale         DRAIN      0.72       0.5        150        6         

AbsLand16in      BC
AbsLand16in      SURFACE    0.001      0.05       0.25       0.5        10        
AbsLand16in      SOIL       400        0.501      0.284      0.135      6.604      8          170       
AbsLand16in      STORAGE    0          0          .254       0         
AbsLand16in      DRAIN      0          0.5        0          6         

RainGarden       BC
RainGarden       SURFACE    300        0.05       0.25       0.5        10        
RainGarden       SOIL       900        0.501      0.284      0.135      6.604      8          170       
RainGarden       STORAGE    300        0.5        0.254      824       
RainGarden       DRAIN      0.72       0.5        150        6         

AbsLand20in      BC
AbsLand20in      SURFACE    0.001      0.05       0.25       0.5        10        
AbsLand20in      SOIL       508        0.501      0.284      0.135      6.604      8          170       
AbsLand20in      STORAGE    0          0          .254       0         
AbsLand20in      DRAIN      0          0.5        0          6         

AbsLand40in      BC
AbsLand40in      SURFACE    0.001      0.05       0.25       0.5        10        
AbsLand40in      SOIL       1000       0.463      0.232      0.116      11.9       10         89        
AbsLand40in      STORAGE    0          0.75       10         1650      
AbsLand40in      DRAIN      0          0.5        0          6         

AbsLand9in       BC
AbsLand9in       SURFACE    0.001      0.05       0.25       0.5        10        
AbsLand9in       SOIL       228.6      .501       0.284      0.135      6.604      8          170       
AbsLand9in       STORAGE    0          0          .254       0         
AbsLand9in       DRAIN      0          0.5        0          6         

[LID_USAGE]
;;Subcatchment   LID Process      Number  Area       Width      InitSat    FromImp    ToPerv     RptFile                  DrainTo         
;;-------------- ---------------- ------- ---------- ---------- ---------- ---------- ---------- ------------------------ ----------------
SF_PERV          AbsLand7.5in     1       245800.00  2390       0          0          0         
COMM_PERV        AbsLand12in      1       1410.00    14         0          0          0         
INST_Fields_IRR  AbsLand12in      1       30400.00   300        0          0          0         
INST_PERV        AbsLand12in      1       25730.00   260        0          0          0         
SSA_PERV         AbsLand12in      1       22770.00   230        0          0          0         
MF_PERV          AbsLand7.5in     1       12740.00   130        0          0          0         
PUL_IRR          AbsLand12in      1       13800.00   120        0          0          0         
MR_PERV_IRR      AbsLand12in      1       42200.00   430        0          0          0         
LRT_PERV         AbsLand12in      1       3060.00    30         0          0          0         
Cell_E_Road_Perv AbsLand12in      1       68340.00   680        0          0          0         

[OUTFALLS]
;;Name           Elevation  Type       Stage Data       Gated    Route To        
;;-------------- ---------- ---------- ---------------- -------- ----------------
Outfall          1090       FREE                        NO                       

[STORAGE]
;;Name           Elev.    MaxDepth   InitDepth  Shape      Curve Name/Params            N/A      Fevap    Psi      Ksat     IMD     
;;-------------- -------- ---------- ----------- ---------- ---------------------------- -------- --------          -------- --------
Cell_E_FB        1086.3   6.5        3.98       TABULAR    Cell_E_FB                    14939.61 1       
Cell_E_Pond      1086.3   6.5        3.7        TABULAR    Cell_E_Pond                  34756.52 1       

[WEIRS]
;;Name           From Node        To Node          Type         CrestHt    Qcoeff     Gated    EndCon   EndCoeff   Surcharge  RoadWidth  RoadSurf  
;;-------------- ---------------- ---------------- ------------ ---------- ---------- -------- -------- ---------- ---------- ---------- ----------
FB_WEIR          Cell_E_FB        Cell_E_Pond      TRANSVERSE   3.8        1.60       NO       0        0          YES       

[OUTLETS]
;;Name           From Node        To Node          Offset     Type            QTable/Qcoeff    Qexpon     Gated   
;;-------------- ---------------- ---------------- ---------- --------------- ---------------- ---------- --------
Outlet_Cell_E_Pond Cell_E_Pond      Outfall          0          TABULAR/DEPTH   Outlet_Cell_E_Pond            YES     

[XSECTIONS]
;;Link           Shape        Geom1            Geom2      Geom3      Geom4      Barrels    Culvert   
;;-------------- ------------ ---------------- ---------- ---------- ---------- ---------- ----------
FB_WEIR          RECT_OPEN    2                50         0          0         

[CURVES]
;;Name           Type       X-Value    Y-Value   
;;-------------- ---------- ---------- ----------
Pumpto           Pump2      0          0         
Pumpto                      1.5        0         
Pumpto                      6          0.3       
;
Outlet_Cell_E_Pond Rating     0.00       0.0000    
Outlet_Cell_E_Pond            3.70       0.0000    
Outlet_Cell_E_Pond            3.71       0.0033    
Outlet_Cell_E_Pond            3.72       0.0094    
Outlet_Cell_E_Pond            3.73       0.0172    
Outlet_Cell_E_Pond            3.74       0.0265    
Outlet_Cell_E_Pond            3.75       0.0370    
Outlet_Cell_E_Pond            3.76       0.0487    
Outlet_Cell_E_Pond            3.77       0.0613    
Outlet_Cell_E_Pond            3.78       0.0741    
Outlet_Cell_E_Pond            3.79       0.0749    
Outlet_Cell_E_Pond            3.80       0.0756    
Outlet_Cell_E_Pond            3.81       0.0764    
Outlet_Cell_E_Pond            3.82       0.0772    
Outlet_Cell_E_Pond            3.83       0.0779    
Outlet_Cell_E_Pond            3.84       0.0787    
Outlet_Cell_E_Pond            3.85       0.0794    
Outlet_Cell_E_Pond            3.86       0.0802    
Outlet_Cell_E_Pond            3.87       0.0809    
Outlet_Cell_E_Pond            3.88       0.0816    
Outlet_Cell_E_Pond            3.89       0.0824    
Outlet_Cell_E_Pond            3.90       0.0831    
Outlet_Cell_E_Pond            3.91       0.0838    
Outlet_Cell_E_Pond            3.92       0.0845    
Outlet_Cell_E_Pond            3.93       0.0852    
Outlet_Cell_E_Pond            3.94       0.0859    
Outlet_Cell_E_Pond            3.95       0.0865    
Outlet_Cell_E_Pond            3.96       0.0872    
Outlet_Cell_E_Pond            3.97       0.0879    
Outlet_Cell_E_Pond            3.98       0.0886    
Outlet_Cell_E_Pond            3.99       0.0892    
Outlet_Cell_E_Pond            4.00       0.0899    
Outlet_Cell_E_Pond            4.01       0.0905    
Outlet_Cell_E_Pond            4.02       0.0912    
Outlet_Cell_E_Pond            4.03       0.0918    
Outlet_Cell_E_Pond            4.04       0.0925    
Outlet_Cell_E_Pond            4.05       0.0931    
Outlet_Cell_E_Pond            4.06       0.0937    
Outlet_Cell_E_Pond            4.07       0.0943    
Outlet_Cell_E_Pond            4.08       0.0950    
Outlet_Cell_E_Pond            4.09       0.0956    
Outlet_Cell_E_Pond            4.10       0.0962    
Outlet_Cell_E_Pond            4.11       0.0968    
Outlet_Cell_E_Pond            4.12       0.0974    
Outlet_Cell_E_Pond            4.13       0.0980    
Outlet_Cell_E_Pond            4.14       0.0986    
Outlet_Cell_E_Pond            4.15       0.0992    
Outlet_Cell_E_Pond            4.16       0.0998    
Outlet_Cell_E_Pond            4.17       0.1004    
Outlet_Cell_E_Pond            4.18       0.1010    
Outlet_Cell_E_Pond            4.19       0.1016    
Outlet_Cell_E_Pond            4.20       0.1021    
Outlet_Cell_E_Pond            4.21       0.1027    
Outlet_Cell_E_Pond            4.22       0.1033    
Outlet_Cell_E_Pond            4.23       0.1039    
Outlet_Cell_E_Pond            4.24       0.1044    
Outlet_Cell_E_Pond            4.25       0.1050    
Outlet_Cell_E_Pond            4.26       0.1055    
Outlet_Cell_E_Pond            4.27       0.1061    
Outlet_Cell_E_Pond            4.28       0.1066    
Outlet_Cell_E_Pond            4.29       0.1072    
Outlet_Cell_E_Pond            4.30       0.1077    
Outlet_Cell_E_Pond            4.31       0.1083    
Outlet_Cell_E_Pond            4.32       0.1088    
Outlet_Cell_E_Pond            4.33       0.1094    
Outlet_Cell_E_Pond            4.34       0.1099    
Outlet_Cell_E_Pond            4.35       0.1104    
Outlet_Cell_E_Pond            4.36       0.1110    
Outlet_Cell_E_Pond            4.37       0.1115    
Outlet_Cell_E_Pond            4.38       0.1120    
Outlet_Cell_E_Pond            4.39       0.1126    
Outlet_Cell_E_Pond            4.40       0.1131    
Outlet_Cell_E_Pond            4.41       0.1136    
Outlet_Cell_E_Pond            4.42       0.1141    
Outlet_Cell_E_Pond            4.43       0.1146    
Outlet_Cell_E_Pond            4.44       0.1151    
Outlet_Cell_E_Pond            4.45       0.1157    
Outlet_Cell_E_Pond            4.46       0.1162    
Outlet_Cell_E_Pond            4.47       0.1167    
Outlet_Cell_E_Pond            4.48       0.1172    
Outlet_Cell_E_Pond            4.49       0.1177    
Outlet_Cell_E_Pond            4.50       0.1182    
Outlet_Cell_E_Pond            4.51       0.1187    
Outlet_Cell_E_Pond            4.52       0.1192    
Outlet_Cell_E_Pond            4.53       0.1197    
Outlet_Cell_E_Pond            4.54       0.1201    
Outlet_Cell_E_Pond            4.55       0.1206    
Outlet_Cell_E_Pond            4.56       0.1211    
Outlet_Cell_E_Pond            4.57       0.1216    
Outlet_Cell_E_Pond            4.58       0.1221    
Outlet_Cell_E_Pond            4.59       0.1226    
Outlet_Cell_E_Pond            4.60       0.1230    
Outlet_Cell_E_Pond            4.61       0.1235    
Outlet_Cell_E_Pond            4.62       0.1240    
Outlet_Cell_E_Pond            4.63       0.1245    
Outlet_Cell_E_Pond            4.64       0.1249    
Outlet_Cell_E_Pond            4.65       0.1254    
Outlet_Cell_E_Pond            4.66       0.1259    
Outlet_Cell_E_Pond            4.67       0.1264    
Outlet_Cell_E_Pond            4.68       0.1268    
Outlet_Cell_E_Pond            4.69       0.1273    
Outlet_Cell_E_Pond            4.70       0.1277    
Outlet_Cell_E_Pond            4.71       0.1282    
Outlet_Cell_E_Pond            4.72       0.1287    
Outlet_Cell_E_Pond            4.73       0.1291    
Outlet_Cell_E_Pond            4.74       0.1296    
Outlet_Cell_E_Pond            4.75       0.1300    
Outlet_Cell_E_Pond            4.76       0.1305    
Outlet_Cell_E_Pond            4.77       0.1309    
Outlet_Cell_E_Pond            4.78       0.1314    
Outlet_Cell_E_Pond            4.79       0.1318    
Outlet_Cell_E_Pond            4.80       0.1323    
Outlet_Cell_E_Pond            4.81       0.1327    
Outlet_Cell_E_Pond            4.82       0.1332    
Outlet_Cell_E_Pond            4.83       0.1336    
Outlet_Cell_E_Pond            4.84       0.1340    
Outlet_Cell_E_Pond            4.85       0.1345    
Outlet_Cell_E_Pond            4.86       0.1349    
Outlet_Cell_E_Pond            4.87       0.1354    
Outlet_Cell_E_Pond            4.88       0.1358    
Outlet_Cell_E_Pond            4.89       0.1362    
Outlet_Cell_E_Pond            4.90       0.1367    
Outlet_Cell_E_Pond            4.91       0.1371    
Outlet_Cell_E_Pond            4.92       0.1375    
Outlet_Cell_E_Pond            4.93       0.1379    
Outlet_Cell_E_Pond            4.94       0.1384    
Outlet_Cell_E_Pond            4.95       0.1388    
Outlet_Cell_E_Pond            4.96       0.1393    
Outlet_Cell_E_Pond            4.97       0.1399    
Outlet_Cell_E_Pond            4.98       0.1407    
Outlet_Cell_E_Pond            4.99       0.1417    
Outlet_Cell_E_Pond            5.00       0.1427    
Outlet_Cell_E_Pond            5.01       0.1439    
Outlet_Cell_E_Pond            5.02       0.1451    
Outlet_Cell_E_Pond            5.03       0.1465    
Outlet_Cell_E_Pond            5.04       0.1479    
Outlet_Cell_E_Pond            5.05       0.1494    
Outlet_Cell_E_Pond            5.06       0.1509    
Outlet_Cell_E_Pond            5.07       0.1525    
Outlet_Cell_E_Pond            5.08       0.1540    
Outlet_Cell_E_Pond            5.09       0.1557    
Outlet_Cell_E_Pond            5.10       0.1575    
Outlet_Cell_E_Pond            5.11       0.1587    
Outlet_Cell_E_Pond            5.12       0.1598    
Outlet_Cell_E_Pond            5.13       0.1609    
Outlet_Cell_E_Pond            5.14       0.1620    
Outlet_Cell_E_Pond            5.15       0.1631    
Outlet_Cell_E_Pond            5.16       0.1641    
Outlet_Cell_E_Pond            5.17       0.1651    
Outlet_Cell_E_Pond            5.18       0.1661    
Outlet_Cell_E_Pond            5.19       0.1670    
Outlet_Cell_E_Pond            5.20       0.1680    
Outlet_Cell_E_Pond            5.21       0.1689    
Outlet_Cell_E_Pond            5.22       0.1698    
Outlet_Cell_E_Pond            5.23       0.1707    
Outlet_Cell_E_Pond            5.24       0.1716    
Outlet_Cell_E_Pond            5.25       0.1724    
Outlet_Cell_E_Pond            5.26       0.1733    
Outlet_Cell_E_Pond            5.27       0.1741    
Outlet_Cell_E_Pond            5.28       0.1750    
Outlet_Cell_E_Pond            5.29       0.1758    
Outlet_Cell_E_Pond            5.30       0.1766    
Outlet_Cell_E_Pond            5.31       0.1774    
Outlet_Cell_E_Pond            5.32       0.1782    
Outlet_Cell_E_Pond            5.33       0.1790    
Outlet_Cell_E_Pond            5.34       0.1798    
Outlet_Cell_E_Pond            5.35       0.1806    
Outlet_Cell_E_Pond            5.36       0.1814    
Outlet_Cell_E_Pond            5.37       0.1821    
Outlet_Cell_E_Pond            5.38       0.1829    
Outlet_Cell_E_Pond            5.39       0.1836    
Outlet_Cell_E_Pond            5.40       0.1844    
Outlet_Cell_E_Pond            5.41       0.1851    
Outlet_Cell_E_Pond            5.42       0.1859    
Outlet_Cell_E_Pond            5.43       0.1866    
Outlet_Cell_E_Pond            5.44       0.1873    
Outlet_Cell_E_Pond            5.45       0.1880    
Outlet_Cell_E_Pond            5.46       0.1888    
Outlet_Cell_E_Pond            5.47       0.1895    
Outlet_Cell_E_Pond            5.48       0.1902    
Outlet_Cell_E_Pond            5.49       0.1909    
Outlet_Cell_E_Pond            5.50       0.1916    
Outlet_Cell_E_Pond            5.51       1.0000    
Outlet_Cell_E_Pond            5.52       1.0000    
Outlet_Cell_E_Pond            5.53       1.0000    
Outlet_Cell_E_Pond            5.54       1.0000    
Outlet_Cell_E_Pond            5.55       1.0000    
Outlet_Cell_E_Pond            5.56       1.0000    
Outlet_Cell_E_Pond            5.57       1.0000    
Outlet_Cell_E_Pond            5.58       1.0000    
Outlet_Cell_E_Pond            5.59       1.0000    
Outlet_Cell_E_Pond            5.60       1.0000    
Outlet_Cell_E_Pond            5.61       1.0000    
Outlet_Cell_E_Pond            5.62       1.0000    
Outlet_Cell_E_Pond            5.63       1.0000    
Outlet_Cell_E_Pond            5.64       1.0000    
Outlet_Cell_E_Pond            5.65       1.0000    
Outlet_Cell_E_Pond            5.66       1.0000    
Outlet_Cell_E_Pond            5.67       1.0000    
Outlet_Cell_E_Pond            5.68       1.0000    
Outlet_Cell_E_Pond            5.69       1.0000    
Outlet_Cell_E_Pond            5.70       1.0000    
Outlet_Cell_E_Pond            5.71       1         
Outlet_Cell_E_Pond            6.02       1         
Outlet_Cell_E_Pond            6.03       1         
Outlet_Cell_E_Pond            6.04       1         
Outlet_Cell_E_Pond            6.05       1         
Outlet_Cell_E_Pond            6.06       1         
Outlet_Cell_E_Pond            6.07       1         
Outlet_Cell_E_Pond            6.08       1         
Outlet_Cell_E_Pond            6.09       1         
Outlet_Cell_E_Pond            6.10       1         
;
219mmDia@4.00m&154mmDia@6.00m Rating     0          0         
219mmDia@4.00m&154mmDia@6.00m            4          0         
219mmDia@4.00m&154mmDia@6.00m            4.01       0         
219mmDia@4.00m&154mmDia@6.00m            4.02       0.000402889
219mmDia@4.00m&154mmDia@6.00m            4.03       0.000850167
219mmDia@4.00m&154mmDia@6.00m            4.04       0.001488198
219mmDia@4.00m&154mmDia@6.00m            4.05       0.002294252
219mmDia@4.00m&154mmDia@6.00m            4.06       0.003265421
219mmDia@4.00m&154mmDia@6.00m            4.07       0.004383587
219mmDia@4.00m&154mmDia@6.00m            4.08       0.005636563
219mmDia@4.00m&154mmDia@6.00m            4.09       0.007017594
219mmDia@4.00m&154mmDia@6.00m            4.1        0.008521416
219mmDia@4.00m&154mmDia@6.00m            4.11       0.010126992
219mmDia@4.00m&154mmDia@6.00m            4.12       0.01184277
219mmDia@4.00m&154mmDia@6.00m            4.13       0.013643403
219mmDia@4.00m&154mmDia@6.00m            4.14       0.015544061
219mmDia@4.00m&154mmDia@6.00m            4.15       0.017514108
219mmDia@4.00m&154mmDia@6.00m            4.16       0.019542806
219mmDia@4.00m&154mmDia@6.00m            4.17       0.021619344
219mmDia@4.00m&154mmDia@6.00m            4.18       0.023772522
219mmDia@4.00m&154mmDia@6.00m            4.19       0.025915511
219mmDia@4.00m&154mmDia@6.00m            4.2        0.028120182
219mmDia@4.00m&154mmDia@6.00m            4.21       0.030335724
219mmDia@4.00m&154mmDia@6.00m            4.22       0.033278213
219mmDia@4.00m&154mmDia@6.00m            4.23       0.034751406
219mmDia@4.00m&154mmDia@6.00m            4.24       0.036164638
219mmDia@4.00m&154mmDia@6.00m            4.25       0.037524682
219mmDia@4.00m&154mmDia@6.00m            4.26       0.038837129
219mmDia@4.00m&154mmDia@6.00m            4.27       0.040106649
219mmDia@4.00m&154mmDia@6.00m            4.28       0.0413372 
219mmDia@4.00m&154mmDia@6.00m            4.29       0.042532163
219mmDia@4.00m&154mmDia@6.00m            4.3        0.043694458
219mmDia@4.00m&154mmDia@6.00m            4.31       0.044826626
219mmDia@4.00m&154mmDia@6.00m            4.32       0.045930896
219mmDia@4.00m&154mmDia@6.00m            4.33       0.047009232
219mmDia@4.00m&154mmDia@6.00m            4.34       0.048063382
219mmDia@4.00m&154mmDia@6.00m            4.35       0.049094903
219mmDia@4.00m&154mmDia@6.00m            4.36       0.050105192
219mmDia@4.00m&154mmDia@6.00m            4.37       0.051095509
219mmDia@4.00m&154mmDia@6.00m            4.38       0.052066993
219mmDia@4.00m&154mmDia@6.00m            4.39       0.05302068
219mmDia@4.00m&154mmDia@6.00m            4.4        0.053957514
219mmDia@4.00m&154mmDia@6.00m            4.41       0.054878357
219mmDia@4.00m&154mmDia@6.00m            4.42       0.055784002
219mmDia@4.00m&154mmDia@6.00m            4.43       0.056675176
219mmDia@4.00m&154mmDia@6.00m            4.44       0.057552553
219mmDia@4.00m&154mmDia@6.00m            4.45       0.058416754
219mmDia@4.00m&154mmDia@6.00m            4.46       0.059268355
219mmDia@4.00m&154mmDia@6.00m            4.47       0.060107892
219mmDia@4.00m&154mmDia@6.00m            4.48       0.060935863
219mmDia@4.00m&154mmDia@6.00m            4.49       0.061752734
219mmDia@4.00m&154mmDia@6.00m            4.5        0.06255894
219mmDia@4.00m&154mmDia@6.00m            4.51       0.063354887
219mmDia@4.00m&154mmDia@6.00m            4.52       0.064140958
219mmDia@4.00m&154mmDia@6.00m            4.53       0.064917511
219mmDia@4.00m&154mmDia@6.00m            4.54       0.065684885
219mmDia@4.00m&154mmDia@6.00m            4.55       0.066443396
219mmDia@4.00m&154mmDia@6.00m            4.56       0.067193345
219mmDia@4.00m&154mmDia@6.00m            4.57       0.067935016
219mmDia@4.00m&154mmDia@6.00m            4.58       0.068668676
219mmDia@4.00m&154mmDia@6.00m            4.59       0.069394581
219mmDia@4.00m&154mmDia@6.00m            4.6        0.070112971
219mmDia@4.00m&154mmDia@6.00m            4.61       0.070824074
219mmDia@4.00m&154mmDia@6.00m            4.62       0.071528108
219mmDia@4.00m&154mmDia@6.00m            4.63       0.072225279
219mmDia@4.00m&154mmDia@6.00m            4.64       0.072915785
219mmDia@4.00m&154mmDia@6.00m            4.65       0.073599813
219mmDia@4.00m&154mmDia@6.00m            4.66       0.074277542
219mmDia@4.00m&154mmDia@6.00m            4.67       0.074949143
219mmDia@4.00m&154mmDia@6.00m            4.68       0.075614779
219mmDia@4.00m&154mmDia@6.00m            4.69       0.076274606
219mmDia@4.00m&154mmDia@6.00m            4.7        0.076928774
219mmDia@4.00m&154mmDia@6.00m            4.71       0.077577427
219mmDia@4.00m&154mmDia@6.00m            4.72       0.0782207 
219mmDia@4.00m&154mmDia@6.00m            4.73       0.078858726
219mmDia@4.00m&154mmDia@6.00m            4.74       0.079491631