[TITLE]
;;Project Title/Notes
 10-yr

[OPTIONS]
;;Option             Value
FLOW_UNITS           CMS
INFILTRATION         HORTON
FLOW_ROUTING         DYNWAVE
LINK_OFFSETS         DEPTH
MIN_SLOPE            0
ALLOW_PONDING        NO
SKIP_STEADY_STATE    NO

START_DATE           01/01/1900
START_TIME           00:00:00
REPORT_START_DATE    01/01/1900
REPORT_START_TIME    00:00:00
END_DATE             01/02/1900
END_TIME             00:00:00
SWEEP_START          1/1
SWEEP_END            12/31
DRY_DAYS             0
REPORT_STEP          00:05:00
WET_STEP             00:05:00
DRY_STEP             00:05:00
ROUTING_STEP         0:00:10 

INERTIAL_DAMPING     PARTIAL
NORMAL_FLOW_LIMITED  FROUDE
FORCE_MAIN_EQUATION  H-W
VARIABLE_STEP        0.75
LENGTHENING_STEP     0
MIN_SURFAREA         0
MAX_TRIALS           0
HEAD_TOLERANCE       0
SYS_FLOW_TOL         5
LAT_FLOW_TOL         5
MINIMUM_STEP         0.5
THREADS              1

[EVAPORATION]
;;Data Source    Parameters
;;-------------- ----------------
CONSTANT         0.0
DRY_ONLY         NO

[RAINGAGES]
;;Name           Format    Interval SCF      Source    
;;-------------- --------- ------ ------ ----------
10_Year.1        INTENSITY 0.16667  1.0      TIMESERIES RN#26           

[SUBCATCHMENTS]
;;Name           Rain Gage        Outlet           Area     %Imperv  Width    %Slope   CurbLen  SnowPack        
;;-------------- ---------------- ---------------- -------- -------- -------- -------- -------- ----------------
DGM_00025#1      10_Year.1        DGM_00025        5.423    16.1     19.6     0.5      0                        
DGM_00056#1      10_Year.1        DGM_00056        0.623    41.4     91.6     0.4      0                        
DGM_00075#1      10_Year.1        DGM_00075        0.65     45.9     52.2     0.1      0                        
DGM_00075#2      10_Year.1        DGM_00075        1.996    38.1     160.321  0.1      0                        
DGM_00078#1      10_Year.1        DGM_00078        0.199    42.9     17.9     0.3      0                        
DGM_00078#2      10_Year.1        DGM_00078        0.506    44.2     45.463   0.3      0                        
DGM_00488#1      10_Year.1        DGM_00488        8.799    40.2     31.8     0.5      0                        
DGM_00921#1      10_Year.1        DGM_00921        0.776    41.3     71.9     0.5      0                        
DGM_00924#1      10_Year.1        DGM_00924        1.068    56.5     130.9    0.2      0                        
DGM_00924#2      10_Year.1        DGM_00924        0.19     57.2     23.284   0.2      0                        
DGM_00927#1      10_Year.1        DGM_00927        1.485    58.3     173.1    0.5      0                        
DGM_00927#2      10_Year.1        DGM_00927        1.795    56.8     209.207  0.1      0                        
DGM_00933#1      10_Year.1        DGM_00933        1.326    50.2     144.9    0.5      0                        
DGM_00935#1      10_Year.1        DGM_00935        3.135    37       854.2    0.5      0                        
DGM_00947#1      10_Year.1        DGM_00947        5.756    40.2     20.8     0.5      0                        
DGM_00948#1      10_Year.1        DGM_00948        1.512    40.1     197.1    0.5      0                        
DGM_00949#1      10_Year.1        DGM_00949        4.683    38.8     464.1    0.5      0                        
DGM_00950#1      10_Year.1        DGM_00950        0.381    44.3     48.6     0.5      0                        
DGM_00964#1      10_Year.1        DGM_00964        1.05     61.1     59.4     0.5      0                        
DGM_00966#1      10_Year.1        DGM_00966        0.427    32.6     28.2     2.3      0                        
DGM_00966#2      10_Year.1        DGM_00966        0.625    35.7     41.227   2.3      0                        
DGM_00967#1      10_Year.1        DGM_00967        1.461    33.1     105.2    0.5      0                        
DGM_00968#1      10_Year.1        DGM_00968        1.332    44.2     96.7     0.3      0                        
DGM_01102#1      10_Year.1        DGM_01102        5.879    34.2     21.2     0.5      0                        
DGM_01103#1      10_Year.1        DGM_01103        1.242    27.6     101.6    0.5      0                        
DGM_01225#1      10_Year.1        DGM_01225        0.028    43.6     7.5      6.4      0                        
DGM_01225#2      10_Year.1        DGM_01225        1.817    40.5     487.131  6.4      0                        
DGM_01231#1      10_Year.1        DGM_01231        12.296   71.4     43.7     0.5      0                        
DGM_01239#1      10_Year.1        DGM_01239        2.252    41.6     155.2    0.5      0                        
DGM_01281#1      10_Year.1        DGM_01281        3.494    37.1     455.5    0.5      0                        
DGM_01288#1      10_Year.1        DGM_01288        0.714    41       75.2     2.1      0                        
DGM_01289#1      10_Year.1        DGM_01289        3.377    38.5     418.5    1        0                        
DGM_01295#1      10_Year.1        DGM_01295        0.589    46       55.1     0.5      0                        
DGM_01346#1      10_Year.1        DGM_01346        1.658    40       231.6    0.5      0                        
DGM_01366#1      10_Year.1        DGM_01366        0.43     39.4     50.3     1.7      0                        
DGM_01366#2      10_Year.1        DGM_01366        3.067    36.2     358.713  1.7      0                        
DGM_01377#1      10_Year.1        DGM_01377        0.62     44.3     51.7     0.7      0                        
DGM_01377#2      10_Year.1        DGM_01377        1.847    40.9     153.917  0.7      0                        
DGM_01482#1      10_Year.1        DGM_01482        2.185    39.4     148.7    0.8      0                        
DGM_01500#1      10_Year.1        DGM_01500        0.94     40       91.5     0.7      0                        
DGM_01728#1      10_Year.1        DGM_01728        1.503    34.6     97       0.2      0                        
DGM_01733#1      10_Year.1        DGM_01733        0.551    38.8     59.1     0.5      0                        
DGM_01733#2      10_Year.1        DGM_01733        0.311    44       33.333   0.1      0                        
DGM_02015#1      10_Year.1        DGM_02015        0.853    43.2     75.8     0.9      0                        
DGM_02045#1      10_Year.1        DGM_02045        2.172    45.5     305.1    0.8      0                        
DGM_02126#1      10_Year.1        DGM_02126        2.356    36.2     307.2    0.5      0                        
DGM_0215#1       10_Year.1        DGM_0215         1.671    38.1     73.7     0.5      0                        
DGM_0215#2       10_Year.1        DGM_0215         4.915    35.4     216.711  0.1      0                        
DGM_02155#1      10_Year.1        DGM_02155        0.628    40.2     52.4     0.5      0                        
DGM_02155#2      10_Year.1        DGM_02155        1.574    36.1     131.386  0.1      0                        
DGM_02174#1      10_Year.1        DGM_02174        0.564    46.6     43.7     1.2      0                        
DGM_02174#2      10_Year.1        DGM_02174        3.067    41.2     237.568  1.2      0                        
DGM_02174#3      10_Year.1        DGM_02174        6.28     40.2     486.445  1.2      0                        
DGM_02175#1      10_Year.1        DGM_02175        21.631   40.2     75.5     0.5      0                        
DGM_02297#1      10_Year.1        DGM_02297        0.777    48.1     63.7     1.6      0                        
DGM_02298#1      10_Year.1        DGM_02298        0.727    48.1     63.5     2        0                        
DGM_02299#1      10_Year.1        DGM_02299        0.84     48.1     69.2     1.4      0                        
DGM_02439#1      10_Year.1        DGM_02439        0.459    48.4     37.5     0.5      0                        
DGM_02439#2      10_Year.1        DGM_02439        0.438    48.4     35.784   0.5      0                        
DGM_02488#1      10_Year.1        DGM_02488        0.679    48.5     53.7     0.5      0                        
DGM_02488#2      10_Year.1        DGM_02488        0.592    49.8     46.835   0.1      0                        
DGM_02681#1      10_Year.1        DGM_02681        0.613    47.9     161.3    0.5      0                        
DGM_03127#1      10_Year.1        DGM_03127        1.388    40.7     282.7    3.3      0                        
DGM_03127#2      10_Year.1        DGM_03127        0.55     38.7     112.016  3.3      0                        
DGM_03128#1      10_Year.1        DGM_03128        1.02     86.6     156.4    0.5      0                        
DGM_03132#1      10_Year.1        DGM_03132        0.391    45       57.6     3        0                        
DGM_03136#1      10_Year.1        DGM_03136        1.308    30.4     79.5     0.6      0                        
DGM_03149#1      10_Year.1        DGM_03149        0.399    43.2     59.6     0.5      0                        
DGM_03150#1      10_Year.1        DGM_03150        3.307    39.5     431.2    0.5      0                        
DGM_03153#1      10_Year.1        DGM_03153        1.081    39.8     89.2     0.6      0                        
DGM_03158#1      10_Year.1        DGM_03158        0.351    46.4     26.4     0.6      0                        
DGM_03158#2      10_Year.1        DGM_03158        1.732    46.9     130.03   0.6      0                        
DGM_03168#1      10_Year.1        DGM_03168        1.28     38.1     115.5    0.3      0                        
DGM_03168#2      10_Year.1        DGM_03168        5.395    36.9     486.913  0.3      0                        
DGM_03170#1      10_Year.1        DGM_03170        1.387    37.6     78.9     1.2      0                        
DGM_03172#2      10_Year.1        DGM_03172        0.3      41       29.155   1.4      0                        
DGM_03174#1      10_Year.1        DGM_03174        0.859    46.4     117.3    2.2      0                        
DGM_03176#1      10_Year.1        DGM_03176        23.882   39.5     83.3     0.5      0                        
DGM_03177#1      10_Year.1        DGM_03177        1.158    43.6     73.7     0.3      0                        
DGM_03178#1      10_Year.1        DGM_03178        0.8      48.1     66.9     1.3      0                        
DGM_03184#1      10_Year.1        DGM_03184        0.26     50.1     31.9     0.3      0                        
DGM_03405#1      10_Year.1        DGM_03405        1.285    43.4     137.4    0.5      0                        
DGM_03418#1      10_Year.1        DGM_03418        1.087    34.9     82       0.8      0                        
DGM_03423#1      10_Year.1        DGM_03423        0.688    44.3     94.6     0.5      0                        
DGM_03434#1      10_Year.1        DGM_03434        6.079    39.1     22       0.5      0                        
DGM_03439#1      10_Year.1        DGM_03439        3.049    38.2     182.1    0.2      0                        
DGM_03440#1      10_Year.1        DGM_03440        1.726    86.9     225      0.5      0                        
DGM_03447#1      10_Year.1        DGM_03447        1.298    42.1     194.3    0.5      0                        
DGM_03448#1      10_Year.1        DGM_03448        0.755    45.9     59.2     0.5      0                        
DGM_03506#1      10_Year.1        DGM_03506        0.075    43.6     15.2     4.7      0                        
DGM_03506#2      10_Year.1        DGM_03506        0.312    42.5     63.03    4.7      0                        
DGM_03507#1      10_Year.1        DGM_03507        0.557    48.1     65.8     1.8      0                        
DGM_03532#1      10_Year.1        DGM_03532        0.481    49.4     42       0.3      0                        
DGM_03926#1      10_Year.1        DGM_03926        1.64     56.2     334      1        0                        
DGM_03934#1      10_Year.1        DGM_03934        0.981    37.7     131.1    1.3      0                        
DGM_03936#1      10_Year.1        DGM_03936        1.623    42.1     134.7    0.5      0                        
DGM_03942#1      10_Year.1        DGM_03942        4.737    71.3     617.6    0.5      0                        
DGM_03942#2      10_Year.1        DGM_03942        4.802    72       80.7     0.5      0                        
DGM_03970#1      10_Year.1        DGM_03970        1.831    38.3     139.6    0.7      0                        
DGM_03972#1      10_Year.1        DGM_03972        0.817    45.7     74.7     0.7      0                        
DGM_03981#1      10_Year.1        DGM_03981        3.231    36.7     421.3    0.5      0                        
DGM_03982#1      10_Year.1        DGM_03982        0.415    38.4     57.4     0.5      0                        
DGM_03983#1      10_Year.1        DGM_03983        3.384    40       417.8    0.5      0                        
DGM_03991#1      10_Year.1        DGM_03991        3.697    32.9     482      0.5      0                        
DGM_03993#1      10_Year.1        DGM_03993        0.681    43.5     100.1    0.4      0                        
DGM_03993#2      10_Year.1        DGM_03993        3.785    38.8     556.618  0.4      0                        
DGM_04003#1      10_Year.1        DGM_04003        1.056    38.9     140.1    1        0                        
DGM_04003#2      10_Year.1        DGM_04003        2.667    36       353.714  1        0                        
DGM_04008#1      10_Year.1        DGM_04008        1.397    39.4     164.9    1.1      0                        
DGM_04018#1      10_Year.1        DGM_04018        3.924    34.7     511.6    0.5      0                        
DGM_04019#1      10_Year.1        DGM_04019        0.516    47.1     63.9     0.5      0                        
DGM_04020#1      10_Year.1        DGM_04020        1.289    33.2     103.5    0.4      0                        
DGM_04026#1      10_Year.1        DGM_04026        0.699    40.3     71.5     0.5      0                        
DGM_04026#2      10_Year.1        DGM_04026        2.674    35.6     273.415  0.1      0                        
DGM_04027#1      10_Year.1        DGM_04027        0.657    39       95.9     0.5      0                        
DGM_04029#1      10_Year.1        DGM_04029        1.097    41.2     148      0.7      0                        
DGM_04030#1      10_Year.1        DGM_04030        1.508    43.6     191.6    0.1      0                        
DGM_04030#2      10_Year.1        DGM_04030        0.732    41.5     93.011   0.1      0                        
DGM_04032#1      10_Year.1        DGM_04032        0.226    43.6     30.8     1.8      0                        
DGM_04043#1      10_Year.1        DGM_04043        2.276    39.2     296.7    0.5      0                        
DGM_04043#2      10_Year.1        DGM_04043        3.359    40.6     80.7     0.5      0                        
DGM_04044#1      10_Year.1        DGM_04044        1.318    36.9     157.7    0.5      0                        
DGM_04068#1      10_Year.1        DGM_04068        4.145    34.9     540.4    0.5      0                        
DGM_04070#1      10_Year.1        DGM_04070        1.472    44.1     153.2    1.5      0                        
DGM_04071#1      10_Year.1        DGM_04071        0.919    42.2     112.3    1.8      0                        
DGM_04081#1      10_Year.1        DGM_04081        5.809    44.2     21       0.5      0                        
DGM_04101#1      10_Year.1        DGM_04101        1.015    41.1     118.3    1.2      0                        
DGM_04101#2      10_Year.1        DGM_04101        2.968    35.4     345.921  1.2      0                        
DGM_04104#1      10_Year.1        DGM_04104        0.96     38.3     86.6     0.8      0                        
DGM_04104#2      10_Year.1        DGM_04104        3.094    35       278.99   0.3      0                        
DGM_04105#1      10_Year.1        DGM_04105        0.54     36.6     74.4     0.7      0                        
DGM_04106#1      10_Year.1        DGM_04106        0.802    63.1     74.4     0.5      0                        
DGM_04108#1      10_Year.1        DGM_04108        2.335    49.9     182.9    0.5      0                        
DGM_04109#1      10_Year.1        DGM_04109        1.405    77.5     361.2    0.4      0                        
DGM_04111#1      10_Year.1        DGM_04111        1.075    37.3     100.7    0.5      0                        
DGM_04112#1      10_Year.1        DGM_04112        11.189   64.1     39.7     0.4      0                        
DGM_04116#1      10_Year.1        DGM_04116        0.445    41.5     56.8     0.5      0                        
DGM_04121#1      10_Year.1        DGM_04121        0.964    47.4     125.7    0.5      0                        
DGM_04123#1      10_Year.1        DGM_04123        1.153    42.1     159.9    0.5      0                        
DGM_04124#1      10_Year.1        DGM_04124        0.59     79.9     130.5    1        0                        
DGM_04129#1      10_Year.1        DGM_04129        0.217    49.4     30.3     0.5      0                        
DGM_04135#1      10_Year.1        DGM_04135        1.127    36.1     85       0.5      0                        
DGM_04136#1      10_Year.1        DGM_04136        3.912    62       510      0.5      0                        
DGM_04141#1      10_Year.1        DGM_04141        0.363    41.9     39.1     0.6      0                        
DGM_04141#2      10_Year.1        DGM_04141        1.322    41.1     142.457  0.6      0                        
DGM_04145#1      10_Year.1        DGM_04145        0.4      37.9     42.2     1.7      0                        
DGM_04145#2      10_Year.1        DGM_04145        2.75     35.6     290.084  1.7      0                        
DGM_04146#1      10_Year.1        DGM_04146        0.19     92.9     16.5     0.1      0                        
DGM_04162#1      10_Year.1        DGM_04162        2.696    37.8     351.5    0.5      0                        
DGM_04163#1      10_Year.1        DGM_04163        1.198    37.4     148.3    0.5      0                        
DGM_04163#2      10_Year.1        DGM_04163        1.877    37.5     232.302  0.1      0                        
DGM_04165#1      10_Year.1        DGM_04165        0.342    49.4     38.3     0.5      0                        
DGM_04167#1      10_Year.1        DGM_04167        2.083    39.9     443.2    0.5      0                        
DGM_04169#1      10_Year.1        DGM_04169        1.399    40.8     108.8    0.5      0                        
DGM_04170#1      10_Year.1        DGM_04170        0.778    38.7     108.5    0.5      0                        
DGM_04172#1      10_Year.1        DGM_04172        0.678    43.1     61.7     0.5      0                        
DGM_04173#1      10_Year.1        DGM_04173        3.297    39.2     502.6    0.4      0                        
DGM_04174#1      10_Year.1        DGM_04174        0.351    56.5     54       0.8      0                        
DGM_04178#1      10_Year.1        DGM_04178        1.598    38.4     201.8    0.5      0                        
DGM_04180#1      10_Year.1        DGM_04180        0.327    48.3     35.8     0.1      0                        
DGM_04181#1      10_Year.1        DGM_04181        0.623    42.5     52.7     0.5      0                        
DGM_04187#1      10_Year.1        DGM_04187        3.943    38       514.1    0.5      0                        
DGM_04188#1      10_Year.1        DGM_04188        0.519    40.3     67.3     2        0                        
DGM_04189#1      10_Year.1        DGM_04189        0.588    37.5     74.8     0.3      0                        
DGM_04191#1      10_Year.1        DGM_04191        1.079    36       140.7    0.5      0                        
DGM_04192#1      10_Year.1        DGM_04192        0.625    44.1     60.2     0.5      0                        
DGM_04198#1      10_Year.1        DGM_04198        2.655    33.2     346.2    0.5      0                        
DGM_04200#1      10_Year.1        DGM_04200        0.253    43.1     41.3     0.4      0                        
DGM_04201#1      10_Year.1        DGM_04201        0.595    53.6     54       0.5      0                        
DGM_04207#1      10_Year.1        DGM_04207        2.669    37       348      0.5      0                        
DGM_04207#2      10_Year.1        DGM_04207        1.871    35.8     80.7     0.5      0                        
DGM_04210#1      10_Year.1        DGM_04210        0.343    49.2     51.7     0.9      0                        
DGM_04211#1      10_Year.1        DGM_04211        3.02     32.1     454.8    0.5      0                        
DGM_04215#1      10_Year.1        DGM_04215        0.777    35.2     109.6    0.5      0                        
DGM_04216#1      10_Year.1        DGM_04216        0.84     55.1     85.4     0.3      0                        
DGM_04222#1      10_Year.1        DGM_04222        1.052    43.5     64.5     0.5      0                        
DGM_04223#1      10_Year.1        DGM_04223        1.514    37.2     117.8    0.8      0                        
DGM_04223#2      10_Year.1        DGM_04223        0.988    35.4     76.887   0.5      0                        
DGM_04234#1      10_Year.1        DGM_04234        0.716    45.7     55.3     0.5      0                        
DGM_04234#2      10_Year.1        DGM_04234        2.492    38.1     192.581  0.1      0                        
DGM_04241#1      10_Year.1        DGM_04241        0.619    47.8     46.6     1.2      0                        
DGM_04241#2      10_Year.1        DGM_04241        5.964    38.8     449.435  1.2      0                        
DGM_04242#1      10_Year.1        DGM_04242        1.794    41.5     267.8    3.4      0                        
DGM_04242#2      10_Year.1        DGM_04242        1.521    44.1     227.015  3.4      0                        
DGM_04251#1      10_Year.1        DGM_04251        3.443    38.5     476.2    0.6      0                        
DGM_04262#1      10_Year.1        DGM_04262        0.815    48.9     93.9     0.1      0                        
DGM_04266#1      10_Year.1        DGM_04266        3.795    34.9     333.8    0.5      0                        
DGM_04273#1      10_Year.1        DGM_04273        1.643    42.1     129.4    0.5      0                        
DGM_04276#1      10_Year.1        DGM_04276        6.322    31.4     22.9     0.5      0                        
DGM_04285#1      10_Year.1        DGM_04285        1.343    48.3     200.7    0.7      0                        
DGM_04289#1      10_Year.1        DGM_04289        2.324    32.7     231.7    12.5     0                        
DGM_04303#1      10_Year.1        DGM_04303        4.457    34       540.9    5.2      0                        
DGM_04303#2      10_Year.1        DGM_04303        0.834    30.3     101.214  5.2      0                        
DGM_04304#1      10_Year.1        DGM_04304        2.704    41.3     388.5    25.2     0                        
DGM_04319#1      10_Year.1        DGM_04319        4.924    31.7     642      0.5      0                        
DGM_04331#1      10_Year.1        DGM_04331        2.955    40.2     385.3    0.5      0                        
DGM_04331#3      10_Year.1        DGM_04331        2.999    40.6     80.7     0.5      0                        
DGM_04341#1      10_Year.1        DGM_04341        0.617    53.6     47.4     0.5      0                        
DGM_04342#1      10_Year.1        DGM_04342        0.792    37.8     148.3    0.5      0                        
DGM_04342#2      10_Year.1        DGM_04342        5.929    32.7     1110.3   0.1      0                        
DGM_04348#1      10_Year.1        DGM_04348        1.39     39.1     181.2    0.5      0                        
DGM_04350#1      10_Year.1        DGM_04350        2.34     1.6      305.1    0.5      0                        
DGM_04351#1      10_Year.1        DGM_04351        11.847   29       42.1     0.5      0                        
DGM_04352#1      10_Year.1        DGM_04352        0.356    43       48.6     0.5      0                        
DGM_04354#1      10_Year.1        DGM_04354        0.501    43.2     62.4     0.5      0                        
DGM_04357#1      10_Year.1        DGM_04357        1.305    41.2     124.5    0.8      0                        
DGM_04365#1      10_Year.1        DGM_04365        9.959    38.9     36       0.5      0                        
DGM_04366#1      10_Year.1        DGM_04366        2.145    39.4     206.8    0.9      0                        
DGM_04381#1      10_Year.1        DGM_04381        0.826    45.6     71       0.2      0                        
DGM_04382#1      10_Year.1        DGM_04382        2.348    32.7     144      0.5      0                        
DGM_04384#1      10_Year.1        DGM_04384        1.758    35.8     154.6    0.5      0                        
DGM_04386#1      10_Year.1        DGM_04386        2.895    36.9     223.7    0.3      0                        
DGM_04389#1      10_Year.1        DGM_04389        1.985    40.3     163.6    0.5      0                        
DGM_04389#2      10_Year.1        DGM_04389        0.664    35.4     54.74    0.1      0                        
DGM_04392#1      10_Year.1        DGM_04392        22.861   46.5     79.7     0.5      0                        
DGM_04392#2      10_Year.1        DGM_04392        3.058    46.5     80.7     0.5      0                        
DGM_04393#1      10_Year.1        DGM_04393        3.727    33       276.9    0.5      0                        
DGM_04395#1      10_Year.1        DGM_04395        1.272    36.7     95.1     0.1      0                        
DGM_04398#1      10_Year.1        DGM_04398        1.75     36.4     202.1    0.5      0                        
DGM_04399#1      10_Year.1        DGM_04399        1.544    41.2     462.3    0.5      0                        
DGM_04442#1      10_Year.1        DGM_04442        6.899    39.1     24.9     0.5      0                        
DGM_04458#1      10_Year.1        DGM_04458        3.123    37.3     407.2    0.5      0                        
DGM_04604#1      10_Year.1        DGM_04604        6.359    39.1     23       0.5      0                        
DGM_04683#1      10_Year.1        DGM_04683        5.895    38.2     21.3     0.7      0                        
DGM_04694#1      10_Year.1        DGM_04694        0.135    46       14.6     0.4      0                        
Node1030#1       10_Year.1        Node1030         6.095    39.1     22       0.5      0                        
Node1031#1       10_Year.1        Node1031         2.15     43.2     153.9    0.3      0                        
Node1031#2       10_Year.1        Node1031         3.305    43.2     236.578  0.3      0                        
Node1049#1       10_Year.1        Node1049         1.01     57.7     95.9     1        0                        
Node1360#2       10_Year.1        Node1360         0.96     42.2     68.768   0.9      0                        
Node1507#1       10_Year.1        Node1507         4.213    39.4     549.3    0.5      0                        
Node1512#1       10_Year.1        Node1512         6.03     50       21.8     0.5      0                        
Node1545#1       10_Year.1        Node1545         2.936    50.5     548.8    0.5      0                        
Node1573#1       10_Year.1        Node1573         4.622    49.1     205.5    0.7      0                        
Node1677#1       10_Year.1        Node1677         1.335    41.7     166.7    0.5      0                        
Node1866#1       10_Year.1        Node1866         2.05     60.5     153.8    0.5      0                        
Node1867#1       10_Year.1        Node1867         0.676    56.2     59.5     0.5      0                        
Node1868#1       10_Year.1        Node1868         2        64.4     260.8    0.5      0                        
Node2268#1       10_Year.1        Node2268         4.838    65.1     270      1.4      0                        
Node2281#1       10_Year.1        Node2281         6.673    31.7     24.1     0.7      0                        
Node2281#2       10_Year.1        Node2281         0.508    37.3     70.95    0.7      0                        
Node2282#1       10_Year.1        Node2282         0.572    48       67.7     0.5      0                        
Node2282#2       10_Year.1        Node2282         0.637    45.1     75.385   0.1      0                        
Node2288#1       10_Year.1        Node2288         1.529    40.1     113.9    1.9      0                        
Node2289#1       10_Year.1        Node2289         1.488    32.4     110.8    2        0                        
Node2291#1       10_Year.1        Node2291         5.307    50.9     19.2     2.9      0                        
Node2292#1       10_Year.1        Node2292         0.564    46.1     51.3     0.3      0                        
Node2293#1       10_Year.1        Node2293         1.246    37.3     98.3     0.5      0                        
Node2293#2       10_Year.1        Node2293         0.998    35.2     78.707   0.1      0                        
Node2294#1       10_Year.1        Node2294         0.536    47.4     60       0.5      0                        
Node2298#1       10_Year.1        Node2298         2.315    41.1     207.1    0.5      0                        
Node2300#1       10_Year.1        Node2300         1.542    37.2     110.1    0.5      0                        