[TITLE]
;;Project Title/Notes


[OPTIONS]
;;Option             Value
FLOW_UNITS           LPS
INFILTRATION         CURVE_NUMBER
FLOW_ROUTING         DYNWAVE
LINK_OFFSETS         DEPTH
MIN_SLOPE            0
ALLOW_PONDING        NO
SKIP_STEADY_STATE    NO

START_DATE           01/01/2017
START_TIME           00:00:00
REPORT_START_DATE    01/01/2017
REPORT_START_TIME    00:00:00
END_DATE             01/03/2017
END_TIME             00:00:00
SWEEP_START          01/01
SWEEP_END            12/31
DRY_DAYS             0
REPORT_STEP          00:01:00
WET_STEP             00:05:00
DRY_STEP             01:00:00
ROUTING_STEP         0:00:01 

INERTIAL_DAMPING     NONE
NORMAL_FLOW_LIMITED  BOTH
FORCE_MAIN_EQUATION  H-W
VARIABLE_STEP        0.75
LENGTHENING_STEP     1
MIN_SURFAREA         0.1
MAX_TRIALS           8
HEAD_TOLERANCE       0.0001
SYS_FLOW_TOL         5
LAT_FLOW_TOL         5
MINIMUM_STEP         0
THREADS              1

[EVAPORATION]
;;Data Source    Parameters
;;-------------- ----------------
CONSTANT         0.0
DRY_ONLY         NO

[RAINGAGES]
;;Name           Format    Interval SCF      Source    
;;-------------- --------- ------ ------ ----------
Pp-Asososca      VOLUME    00:15    1        TIMESERIES Pp-Asososca     

[SUBCATCHMENTS]
;;Name           Rain Gage        Outlet           Area     %Imperv  Width    %Slope   CurbLen  SnowPack        
;;-------------- ---------------- ---------------- -------- -------- -------- -------- -------- ----------------
35AV-04          Pp-Asososca      T35-56           25.78    80.38    240.93   2.7      0                        
35AV-08          Pp-Asososca      T35-43           26.25    63.76    275.20   5.7      0                        
35AV-09          Pp-Asososca      T35-50           33.04    72.51    252.02   4.1      0                        
35AV-10          Pp-Asososca      T35-39           17.41    33.58    232.85   7.1      0                        
35AV-13          Pp-Asososca      T35-39           19.87    72.49    313.66   3.6      0                        
35AV-15          Pp-Asososca      T35-31           51.50    63.33    605.44   9.0      0                        

[SUBAREAS]
;;Subcatchment   N-Imperv   N-Perv     S-Imperv   S-Perv     PctZero    RouteTo    PctRouted 
;;-------------- ---------- ---------- ---------- ---------- ---------- ---------- ----------
35AV-04          0.01       0.20       1.50       5.00       25         PERVIOUS   100       
35AV-08          0.01       0.20       1.50       5.00       25         PERVIOUS   100       
35AV-09          0.01       0.20       1.50       5.00       25         PERVIOUS   100       
35AV-10          0.01       0.20       1.50       5.00       25         PERVIOUS   100       
35AV-13          0.01       0.20       1.50       5.00       25         PERVIOUS   100       
35AV-15          0.01       0.20       1.50       5.00       25         PERVIOUS   100       

[INFILTRATION]
;;Subcatchment   CurveNum              DryTime   
;;-------------- ---------- ---------- ----------
35AV-04          64.81      .05        2.00      
35AV-08          79.29      .05        2.00      
35AV-09          69.92      .05        2.00      
35AV-10          82.68      .05        2.00      
35AV-13          70.96      .05        2.00      
35AV-15          76.27      .05        2.00      

[JUNCTIONS]
;;Name           Elevation  MaxDepth   InitDepth  SurDepth   Aponded   
;;-------------- ---------- ---------- ---------- ---------- ----------
T35-01           131.35     5.5        0          0          10000     
T35-02           130.22     5.49       0          0          10000     
T35-03           129.10     5.45       0          0          10000     
T35-04           127.99     5.49       0          0          10000     
T35-05           126.89     5.46       0          0          10000     
T35-06           125.77     5.46       0          0          10000     
T35-07           124.67     5.47       0          0          10000     
T35-08           123.54     5.41       0          0          10000     
T35-09           122.43     5.45       0          0          10000     
T35-10           121.32     5.45       0          0          10000     
T35-11           120.19     5.44       0          0          10000     
T35-12           119.07     5.46       0          0          10000     
T35-13           117.97     5.45       0          0          10000     
T35-14           116.85     5.46       0          0          10000     
T35-15           115.73     5.48       0          0          10000     
T35-16           114.62     5.48       0          0          10000     
T35-17           113.49     5.46       0          0          10000     
T35-18           112.36     5.49       0          0          10000     
T35-19           111.25     5.46       0          0          10000     
T35-20           110.13     5.4        0          0          10000     
T35-21           109.03     5.46       0          0          10000     
T35-22           107.90     5.43       0          0          10000     
T35-23           106.80     5.48       0          0          10000     
T35-24           105.67     5.42       0          0          10000     
T35-25           104.55     5.4        0          0          10000     
T35-26           103.47     5.33       0          0          10000     
T35-27           102.18     5.42       0          0          10000     
T35-28           101.01     5.47       0          0          10000     
T35-29           99.83      5.45       0          0          10000     
T35-30           98.68      5.47       0          0          10000     
T35-31           98.50      4.48       0          0          10000     
T35-32           97.20      4.47       0          0          10000     
T35-33           95.84      4.47       0          0          10000     
T35-34           94.15      4.47       0          0          10000     
T35-35           92.32      4.47       0          0          10000     
T35-36           90.52      4.47       0          0          10000     
T35-37           88.88      4.46       0          0          10000     
T35-38           87.31      4.47       0          0          10000     
T35-39           85.67      4.48       0          0          10000     
T35-40           84.29      4.47       0          0          10000     
T35-41           82.84      4.47       0          0          10000     
T35-42           81.49      4.47       0          0          10000     
T35-43           79.98      4.46       0          0          10000     
T35-44           78.56      4.47       0          0          10000     
T35-45           76.94      4.48       0          0          10000     
T35-46           75.37      4.47       0          0          10000     
T35-47           73.91      4.48       0          0          10000     
T35-48           72.60      4.46       0          0          10000     
T35-49           71.14      4.47       0          0          10000     
T35-50           69.74      4.48       0          0          10000     
T35-51           67.97      4.46       0          0          10000     
T35-52           66.43      4.47       0          0          10000     
T35-53           65.02      4.47       0          0          10000     
T35-54           63.52      4.48       0          0          10000     
T35-55           61.92      4.48       0          0          10000     
T35-56           60.20      4.47       0          0          10000     
T35-57           57.64      4.48       0          0          10000     

[OUTFALLS]
;;Name           Elevation  Type       Stage Data       Gated    Route To        
;;-------------- ---------- ---------- ---------------- -------- ----------------
T35-58           52.84      FREE                        NO                       

[CONDUITS]
;;Name           From Node        To Node          Length     Roughness  InOffset   OutOffset  InitFlow   MaxFlow   
;;-------------- ---------------- ---------------- ---------- ---------- ---------- ---------- ---------- ----------
Tu35-01          T35-01           T35-02           18.00      0.015      0.00       1          0          0         
Tu35-02          T35-02           T35-03           17.00      0.015      0.00       1          0          0         
Tu35-03          T35-03           T35-04           16.00      0.015      0.00       1          0          0         
Tu35-04          T35-04           T35-05           14.50      0.015      0.00       1          0          0         
Tu35-05          T35-05           T35-06           17.50      0.015      0.00       1          0          0         
Tu35-06          T35-06           T35-07           15.00      0.015      0.00       1          0          0         
Tu35-07          T35-07           T35-08           18.00      0.015      0.00       1          0          0         
Tu35-08          T35-08           T35-09           16.00      0.015      0.00       1          0          0         
Tu35-09          T35-09           T35-10           15.00      0.015      0.00       1          0          0         
Tu35-10          T35-10           T35-11           18.00      0.015      0.00       1          0          0         
Tu35-11          T35-11           T35-12           17.00      0.015      0.00       1          0          0         
Tu35-12          T35-12           T35-13           15.00      0.015      0.00       1          0          0         
Tu35-13          T35-13           T35-14           17.00      0.015      0.00       1          0          0         
Tu35-14          T35-14           T35-15           17.50      0.015      0.00       1          0          0         
Tu35-15          T35-15           T35-16           16.00      0.015      0.00       1          0          0         
Tu35-16          T35-16           T35-17           18.00      0.015      0.00       1          0          0         
Tu35-17          T35-17           T35-18           18.00      0.015      0.00       1          0          0         
Tu35-18          T35-18           T35-19           16.00      0.015      0.00       1          0          0         
Tu35-19          T35-19           T35-20           17.49      0.015      0.00       1          0          0         
Tu35-20          T35-20           T35-21           14.50      0.015      0.00       1          0          0         
Tu35-21          T35-21           T35-22           18.99      0.015      0.00       1          0          0         
Tu35-22          T35-22           T35-23           15.00      0.015      0.00       1          0          0         
Tu35-23          T35-23           T35-24           18.50      0.015      0.00       1          0          0         
Tu35-24          T35-24           T35-25           17.00      0.015      0.00       1          0          0         
Tu35-25          T35-25           T35-26           11.99      0.015      0.00       1          0          0         
Tu35-26          T35-26           T35-27           41.25      0.015      0.00       1          0          0         
Tu35-27          T35-27           T35-28           24.00      0.015      0.00       1          0          0         
Tu35-28          T35-28           T35-29           25.48      0.015      0.00       1          0          0         
Tu35-29          T35-29           T35-30           20.98      0.015      0.00       1          0          0         
Tu35-30          T35-30           T35-31           26.00      0.015      0.00       0          0          0         
Tu35-31          T35-31           T35-32           43.00      0.015      0.00       1          0          0         
Tu35-32          T35-32           T35-33           52.00      0.015      0.00       1          0          0         
Tu35-33          T35-33           T35-34           98.16      0.015      0.00       1          0          0         
Tu35-34          T35-34           T35-35           118.92     0.015      0.00       1          0          0         
Tu35-35          T35-35           T35-36           114.00     0.015      0.00       1          0          0         
Tu35-36          T35-36           T35-37           91.50      0.015      0.00       1          0          0         
Tu35-37          T35-37           T35-38           81.00      0.015      0.00       1          0          0         
Tu35-38          T35-38           T35-39           90.96      0.015      0.00       1          0          0         
Tu35-39          T35-39           T35-40           54.69      0.015      0.00       1          0          0         
Tu35-40          T35-40           T35-41           63.98      0.015      0.00       1          0          0         
Tu35-41          T35-41           T35-42           49.50      0.015      0.00       1          0          0         
Tu35-42          T35-42           T35-43           73.00      0.015      0.00       1          0          0         
Tu35-43          T35-43           T35-44           60.00      0.015      0.00       1          0          0         
Tu35-44          T35-44           T35-45           88.00      0.015      0.00       1          0          0         
Tu35-45          T35-45           T35-46           81.00      0.015      0.00       1          0          0         
Tu35-46          T35-46           T35-47           66.00      0.015      0.00       1          0          0         
Tu35-47          T35-47           T35-48           45.00      0.015      0.00       1          0          0         
Tu35-48          T35-48           T35-49           66.00      0.015      0.00       1          0          0         
Tu35-49          T35-49           T35-50           56.50      0.015      0.00       1          0          0         
Tu35-50          T35-50           T35-51           110.00     0.015      0.00       1          0          0         
Tu35-51          T35-51           T35-52           77.00      0.015      0.00       1          0          0         
Tu35-52          T35-52           T35-53           58.00      0.015      0.00       1          0          0         
Tu35-53          T35-53           T35-54           72.00      0.015      0.00       1          0          0         
Tu35-54          T35-54           T35-55           86.00      0.015      0.00       1          0          0         
Tu35-55          T35-55           T35-56           103.00     0.015      0.00       1          0          0         
Tu35-56          T35-56           T35-57           222.50     0.015      0.00       1          0          0         
Tu35-57          T35-57           T35-58           455.36     0.015      0.00       0          0          0         

[XSECTIONS]
;;Link           Shape        Geom1            Geom2      Geom3      Geom4      Barrels    Culvert   
;;-------------- ------------ ---------------- ---------- ---------- ---------- ---------- ----------
Tu35-01          RECT_CLOSED  3.500            3.5        0          0          1                    
Tu35-02          RECT_CLOSED  3.500            3.5        0          0          1                    
Tu35-03          RECT_CLOSED  3.500            3.5        0          0          1                    
Tu35-04          RECT_CLOSED  3.500            3.5        0          0          1                    
Tu35-05          RECT_CLOSED  3.500            3.5        0          0          1                    
Tu35-06          RECT_CLOSED  3.500            3.5        0          0          1                    
Tu35-07          RECT_CLOSED  3.500            3.5        0          0          1                    
Tu35-08          RECT_CLOSED  3.500            3.5        0          0          1                    
Tu35-09          RECT_CLOSED  3.500            3.5        0          0          1                    
Tu35-10          RECT_CLOSED  3.500            3.5        0          0          1                    
Tu35-11          RECT_CLOSED  3.500            3.5        0          0          1                    
Tu35-12          RECT_CLOSED  3.500            3.5        0          0          1                    
Tu35-13          RECT_CLOSED  3.500            3.5        0          0          1                    
Tu35-14          RECT_CLOSED  3.500            3.5        0          0          1                    
Tu35-15          RECT_CLOSED  3.500            3.5        0          0          1                    
Tu35-16          RECT_CLOSED  3.500            3.5        0          0          1                    
Tu35-17          RECT_CLOSED  3.500            3.5        0          0          1                    
Tu35-18          RECT_CLOSED  3.500            3.5        0          0          1                    
Tu35-19          RECT_CLOSED  3.500            3.5        0          0          1                    
Tu35-20          RECT_CLOSED  3.500            3.5        0          0          1                    
Tu35-21          RECT_CLOSED  3.500            3.5        0          0          1                    
Tu35-22          RECT_CLOSED  3.500            3.5        0          0          1                    
Tu35-23          RECT_CLOSED  3.500            3.5        0          0          1                    
Tu35-24          RECT_CLOSED  3.500            3.5        0          0          1                    
Tu35-25          RECT_CLOSED  3.500            3.5        0          0          1                    
Tu35-26          RECT_CLOSED  3.500            3.5        0          0          1                    
Tu35-27          RECT_CLOSED  3.500            3.5        0          0          1                    
Tu35-28          RECT_CLOSED  3.500            3.5        0          0          1                    
Tu35-29          RECT_CLOSED  3.500            3.5        0          0          1                    
Tu35-30          RECT_CLOSED  3.500            3.5        0          0          1                    
Tu35-31          RECT_CLOSED  4.100            4.1        0          0          1                    
Tu35-32          RECT_CLOSED  4.100            4.1        0          0          1                    
Tu35-33          RECT_CLOSED  4.100            4.1        0          0          1                    
Tu35-34          RECT_CLOSED  4.100            4.1        0          0          1                    
Tu35-35          RECT_CLOSED  4.100            4.1        0          0          1                    
Tu35-36          RECT_CLOSED  4.100            4.1        0          0          1                    
Tu35-37          RECT_CLOSED  4.100            4.1        0          0          1                    
Tu35-38          RECT_CLOSED  4.100            4.1        0          0          1                    
Tu35-39          RECT_CLOSED  4.100            4.1        0          0          1                    
Tu35-40          RECT_CLOSED  4.100            4.1        0          0          1                    
Tu35-41          RECT_CLOSED  4.100            4.1        0          0          1                    
Tu35-42          RECT_CLOSED  4.100            4.1        0          0          1                    
Tu35-43          RECT_CLOSED  4.100            4.1        0          0          1                    
Tu35-44          RECT_CLOSED  4.100            4.1        0          0          1                    
Tu35-45          RECT_CLOSED  4.100            4.1        0          0          1                    
Tu35-46          RECT_CLOSED  4.100            4.1        0          0          1                    
Tu35-47          RECT_CLOSED  4.100            4.1        0          0          1                    
Tu35-48          RECT_CLOSED  4.100            4.1        0          0          1                    
Tu35-49          RECT_CLOSED  4.100            4.1        0          0          1                    
Tu35-50          RECT_CLOSED  4.100            4.1        0          0          1                    
Tu35-51          RECT_CLOSED  4.100            4.1        0          0          1                    
Tu35-52          RECT_CLOSED  4.100            4.1        0          0          1                    
Tu35-53          RECT_CLOSED  4.100            4.1        0          0          1                    
Tu35-54          RECT_CLOSED  4.100            4.1        0          0          1                    
Tu35-55          RECT_CLOSED  4.100            4.1        0          0          1                    
Tu35-56          RECT_CLOSED  4.100            4.1        0          0          1                    
Tu35-57          RECT_CLOSED  4.100            4.1        0          0          1                    

[TRANSECTS]
;;Transect Data in HEC-2 format
;
NC 0.02     0.02     0.02    
X1 LAF01             9        0.0      0.0      0.0      0.0      0.0      0.0      0.0     
GR 87.23    0.00     86.23    0.00     86.04    0.23     85.99    1.41     85.79    2.50    
GR 85.69    5.13     85.82    7.42     86.03    9.45     87.03    9.45    
;
NC 0.02     0.02     0.02    
X1 LAF02             13       0.0      0.0      0.0      0.0      0.0      0.0      0.0     
GR 87.29    0.00     86.29    0.00     86.26    0.29     86.24    1.30     86.38    1.62    
GR 86.27    1.66     86.36    4.67     86.24    7.69     86.37    7.73     86.34    8.45    
GR 86.34    9.50     86.32    9.70     87.32    9.70    

[LOSSES]
;;Link           Kentry     Kexit      Kavg       Flap Gate  Seepage   
;;-------------- ---------- ---------- ---------- ---------- ----------
Tu35-01          0          .05        0          NO         0         
Tu35-02          0          .05        0          NO         0         
Tu35-03          0          .05        0          NO         0         
Tu35-04          0          .05        0          NO         0         
Tu35-05          0          .05        0          NO         0         
Tu35-06          0          .05        0          NO         0         
Tu35-07          0          .05        0          NO         0         
Tu35-08          0          .05        0          NO         0         
Tu35-09          0          .05        0          NO         0         
Tu35-10          0          .05        0          NO         0         
Tu35-11          0          .05        0          NO         0         
Tu35-12          0          .05        0          NO         0         
Tu35-13          0          .05        0          NO         0         
Tu35-14          0          .05        0          NO         0         
Tu35-15          0          .05        0          NO         0         
Tu35-16          0          .05        0          NO         0         
Tu35-17          0          .05        0          NO         0         
Tu35-18          0          .05        0          NO         0         
Tu35-19          0          .05        0          NO         0         
Tu35-20          0          .05        0          NO         0         
Tu35-21          0          .05        0          NO         0         
Tu35-22          0          .05        0          NO         0         
Tu35-23          0          .05        0          NO         0         
Tu35-24          0          .05        0          NO         0         
Tu35-25          0          .05        0          NO         0         
Tu35-26          0          .05        0          NO         0         
Tu35-27          0          .05        0          NO         0         
Tu35-28          0          .05        0          NO         0         
Tu35-29          0          .05        0          NO         0         
Tu35-31          0          .05        0          NO         0         
Tu35-32          0          .05        0          NO         0         
Tu35-33          0          .05        0          NO         0         
Tu35-34          0          .05        0          NO         0         
Tu35-35          0          .05        0          NO         0         
Tu35-36          0          .05        0          NO         0         
Tu35-37          0          .05        0          NO         0         
Tu35-38          0          .05        0          NO         0         
Tu35-39          0          .05        0          NO         0         
Tu35-40          0          .05        0          NO         0         
Tu35-41          0          .05        0          NO         0         
Tu35-42          0          .05        0          NO         0         
Tu35-43          0          .05        0          NO         0         
Tu35-44          0          .05        0          NO         0         
Tu35-45          0          .05        0          NO         0         
Tu35-46          0          .05        0          NO         0         
Tu35-47          0          .05        0          NO         0         
Tu35-48          0          .05        0          NO         0         
Tu35-49          0          .05        0          NO         0         
Tu35-50          0          .05        0          NO         0         
Tu35-51          0          .05        0          NO         0         
Tu35-52          0          .05        0          NO         0         
Tu35-53          0          .05        0          NO         0         
Tu35-54          0          .05        0          NO         0         
Tu35-55          0          .05        0          NO         0         
Tu35-56          0          .05        0          NO         0         

[INFLOWS]
;;Node           Constituent      Time Series      Type     Mfactor  Sfactor  Baseline Pattern
;;-------------- ---------------- ---------------- -------- -------- -------- -------- --------
T35-01           FLOW             Sink-1           FLOW     1.0      1000     0       

[CURVES]
;;Name           Type       X-Value    Y-Value   
;;-------------- ---------- ---------- ----------
Tos              Pump3      8          750       
Tos                         10         700       
Tos                         14         550       
Tos                         16         450       
Tos                         18         375       
Tos                         20         300       
Tos                         24         150       
Tos                         28         0         
;
Ven              Pump3      8          400       
Ven                         10         358.33    
Ven                         12         316.67    
Ven                         14         283.33    
Ven                         16         233.33    
Ven                         18         166.67    
Ven                         20         100       
Ven                         22         33.33     
Ven                         25         0         

[TIMESERIES]
;;Name           Date       Time       Value     
;;-------------- ---------- ---------- ----------
Pp-Asososca      01/01/2017 00:00:00   0         
Pp-Asososca      01/01/2017 00:15:00   .721049337543198
Pp-Asososca      01/01/2017 00:30:00   .721049337543198
Pp-Asososca      01/01/2017 00:45:00   .721049337543198
Pp-Asososca      01/01/2017 01:00:00   .721049337543198
Pp-Asososca      01/01/2017 01:15:00   .721049337543198
Pp-Asososca      01/01/2017 01:30:00   .721049337543198
Pp-Asososca      01/01/2017 01:45:00   .721049337543198
Pp-Asososca      01/01/2017 02:00:00   .721049337543198
Pp-Asososca      01/01/2017 02:15:00   .721049337543198
Pp-Asososca      01/01/2017 02:30:00   .721049337543198
Pp-Asososca      01/01/2017 02:45:00   .721049337543198
Pp-Asososca      01/01/2017 03:00:00   .721049337543198
Pp-Asososca      01/01/2017 03:15:00   .721049337543198
Pp-Asososca      01/01/2017 03:30:00   .721049337543198
Pp-Asososca      01/01/2017 03:45:00   .721049337543198
Pp-Asososca      01/01/2017 04:00:00   .721049337543198
Pp-Asososca      01/01/2017 04:15:00   .721049337543198
Pp-Asososca      01/01/2017 04:30:00   .721049337543198
Pp-Asososca      01/01/2017 04:45:00   .721049337543198
Pp-Asososca      01/01/2017 05:00:00   .721049337543198
Pp-Asososca      01/01/2017 05:15:00   .721049337543198
Pp-Asososca      01/01/2017 05:30:00   .721049337543198
Pp-Asososca      01/01/2017 05:45:00   .721049337543198
Pp-Asososca      01/01/2017 06:00:00   .721049337543198
Pp-Asososca      01/01/2017 06:15:00   .721049337543198
Pp-Asososca      01/01/2017 06:30:00   .721049337543198
Pp-Asososca      01/01/2017 06:45:00   .721049337543198
Pp-Asososca      01/01/2017 07:00:00   .721049337543198
Pp-Asososca      01/01/2017 07:15:00   .721049337543198
Pp-Asososca      01/01/2017 07:30:00   .721049337543198
Pp-Asososca      01/01/2017 07:45:00   .721049337543198
Pp-Asososca      01/01/2017 08:00:00   .721049337543198
Pp-Asososca      01/01/2017 08:15:00   .721049337543198
Pp-Asososca      01/01/2017 08:30:00   .721049337543198
Pp-Asososca      01/01/2017 08:45:00   .721049337543198
Pp-Asososca      01/01/2017 09:00:00   .721049337543198
Pp-Asososca      01/01/2017 09:15:00   2.23229520877986
Pp-Asososca      01/01/2017 09:30:00   2.23229520877986
Pp-Asososca      01/01/2017 09:45:00   2.23229520877986
Pp-Asososca      01/01/2017 10:00:00   2.23229520877986
Pp-Asososca      01/01/2017 10:15:00   2.23229520877986
Pp-Asososca      01/01/2017 10:30:00   2.23229520877986
Pp-Asososca      01/01/2017 10:45:00   2.23229520877986
Pp-Asososca      01/01/2017 11:00:00   2.23229520877986
Pp-Asososca      01/01/2017 11:15:00   5.43380220259773
Pp-Asososca      01/01/2017 11:30:00   5.43380220259773
Pp-Asososca      01/01/2017 11:45:00   10.6866755594264
Pp-Asososca      01/01/2017 12:00:00   19.8939750226581
Pp-Asososca      01/01/2017 12:15:00   44.2595481649935
Pp-Asososca      01/01/2017 12:30:00   10.6866755594264
Pp-Asososca      01/01/2017 12:45:00   5.43380220259773
Pp-Asososca      01/01/2017 13:00:00   5.43380220259773