[TITLE]
;;Project Title/Notes

[OPTIONS]
;;Option             Value
FLOW_UNITS           CFS
INFILTRATION         GREEN_AMPT
FLOW_ROUTING         DYNWAVE
LINK_OFFSETS         DEPTH
MIN_SLOPE            0
ALLOW_PONDING        NO
SKIP_STEADY_STATE    NO

START_DATE           06/01/2006
START_TIME           00:00:00
REPORT_START_DATE    06/01/2006
REPORT_START_TIME    00:00:00
END_DATE             06/05/2006
END_TIME             00:00:00
SWEEP_START          01/01
SWEEP_END            12/31
DRY_DAYS             0
REPORT_STEP          00:01:00
WET_STEP             00:01:00
DRY_STEP             00:05:00
ROUTING_STEP         0:00:10 

INERTIAL_DAMPING     PARTIAL
NORMAL_FLOW_LIMITED  BOTH
FORCE_MAIN_EQUATION  H-W
VARIABLE_STEP        0.50
LENGTHENING_STEP     0
MIN_SURFAREA         12.557
MAX_TRIALS           20
HEAD_TOLERANCE       0.0075
SYS_FLOW_TOL         5
LAT_FLOW_TOL         5
MINIMUM_STEP         0.5
THREADS              4

[EVAPORATION]
;;Data Source    Parameters
;;-------------- ----------------
CONSTANT         0
DRY_ONLY         NO

[RAINGAGES]
;;Name           Format    Interval SCF      Source    
;;-------------- --------- ------ ------ ----------
HDRstorms        INTENSITY 0:30     1        TIMESERIES tempadj6.3Q1-10 

[SUBCATCHMENTS]
;;Name           Rain Gage        Outlet           Area     %Imperv  Width    %Slope   CurbLen  SnowPack        
;;-------------- ---------------- ---------------- -------- -------- -------- -------- -------- ----------------
1072#1           HDRstorms        1072             37.814   33.5     663.242  1.69     0                        
1301#1           HDRstorms        1301             10.456   13.1     697.782  13.11    0                        
2857#1           HDRstorms        2857             38.643   51.9     634.816  1.88     0                        
2949#1           HDRstorms        2949             2.008    52.7     90.152   1.47     0                        
446#1            HDRstorms        446              46.946   43.1     522.978  1.82     0                        
AL1-1#1          HDRstorms        AL1-1            114.374  40.1     1323.79  1.14     0                        
AL1N1-1#1        HDRstorms        AL1N1-1          219.291  22.5     1874.69  1.34     0                        
AL1N2-1#1        HDRstorms        AL1N2-1          33.158   40.2     755.685  1.39     0                        
AL1N2-2#1        HDRstorms        AL1N2-2          90.527   43.1     1395.77  1.57     0                        
AL1N2-3#1        HDRstorms        AL1N2-3          32.591   62.7     647.062  2.44     0                        
AL1S1-1#1        HDRstorms        AL1S1-1          76.023   36.2     1327.57  2.35     0                        
BL_CDP42#1       HDRstorms        BL_CDP42         38.875   34.7     1033.05  0.53     0                        
BLFwyMdwP1#1     HDRstorms        BLFwyMdwP1       65.782   33.6     1623.94  3.79     0                        
BLFwyMdwP4#1     HDRstorms        BLFwyMdwP4       38.381   40.8     545.735  0.82     0                        
BLFwyMdwW5#1     HDRstorms        BLFwyMdwW5       3.355    25.7     588.714  2.28     0                        
CD_P20#1         HDRstorms        CD_P20           17.371   41.5     1065.76  3.1      0                        
CD-P25#1         HDRstorms        CD-P25           9.174    16.9     621.714  1.26     0                        
CD-P25.1#1       HDRstorms        CD-P25.1         63.451   38.8     936.783  2.06     0                        
CL1-1#1          HDRstorms        CL1-1            422.138  45       4122.37  2.54     0                        
CL1N1-1#1        HDRstorms        CL1N1-1          60.305   44.1     928.017  1.84     0                        
CL1N2-1#1        HDRstorms        CL1N2-1          147.408  29.2     1281.05  0.88     0                        
CL1N3-1#1        HDRstorms        CL1N3-1          62.362   44       1131.64  0.79     0                        
CL1N4-1#1        HDRstorms        CL1N4-1          9.084    31.8     640.58   4.19     0                        
CL1N5-1#1        HDRstorms        CL1N5-1          13.097   35.5     845.038  3.37     0                        
CL1N6-1#1        HDRstorms        CL1N6-1          42.758   30.1     976.906  0.89     0                        
CL1W1-1#1        HDRstorms        CL1W1-1          58.193   30.4     1351.86  2.3      0                        
CL1W2-1#1        HDRstorms        CL1W2-1          108.128  36.2     1501.55  2.18     0                        
CL2-1#1          HDRstorms        CL2-1            82.476   31.3     1452.88  4.63     0                        
CL3-1#1          HDRstorms        CL3-1            28.486   37.1     637.812  0.99     0                        
CLBLdCDP38#1     HDRstorms        CLBLdCDP38       43.686   33.4     800.342  3.33     0                        
CLCL1Ad12#1      HDRstorms        CLCL1Ad12        79.692   37.3     1134.15  2.7      0                        
CLHghHt1P1#1     HDRstorms        CLHghHt1P1       25.477   36.8     523.477  2.81     0                        
CLQryRdgPA#1     HDRstorms        CLQryRdgPA       35.435   41.4     1014.47  3.71     0                        
CLWdCrsP1#1      HDRstorms        CLWdCrsP1        33.16    37.5     765.8    3.08     0                        
CLWdCrsP2#1      HDRstorms        CLWdCrsP2        6.923    36.9     328.409  3.3      0                        
CLWdCrsP3#1      HDRstorms        CLWdCrsP3        13.512   43.2     652.246  3.46     0                        
Ep_NC2.1#1       HDRstorms        Ep_NC2.1         11.858   58.5     280.243  1.82     0                        
Ep_NC2.1#2       HDRstorms        Ep_NC2.1         14.252   13.4     296.468  1.65     0                        
Ep_NC2.2#1       HDRstorms        Ep_NC2.2         0.741    19.9     75.983   4.25     0                        
Ep_NC2.2#2       HDRstorms        Ep_NC2.2         3.269    7.1      183.422  4.18     0                        
EP1-1#1          HDRstorms        EP1-1            29.509   44.2     341.329  1.76     0                        
EP2-1#1          HDRstorms        EP2-1            4.137    22.3     308.036  2.22     0                        
EP2-2p#1         HDRstorms        EP2-2p           11.668   52.4     424.102  1.81     0                        
EP2-3#1          HDRstorms        EP2-3            87.146   19.5     1266.01  3.13     0                        
EP2-5#1          HDRstorms        EP2-5            60.805   9.3      665.014  2.35     0                        
EP3-2#1          HDRstorms        EP3-2            58.499   9        769.58   1.37     0                        
EP4-1#1          HDRstorms        EP4-1            90.256   12.1     1311.89  1.57     0                        
EP4-3#1          HDRstorms        EP4-3            19.144   21.3     652.612  1.56     0                        
Ept_P1#1         HDRstorms        Ept_P1           5.157    55.9     388.769  3.49     0                        
Ept_P10#1        HDRstorms        Ept_P10          4.102    71.3     424.675  0.4      0                        
Ept_P13#1        HDRstorms        Ept_P13          19.598   33.6     886.164  1.78     0                        
Ept_P18#1        HDRstorms        Ept_P18          16.562   22.2     654.433  0.98     0                        
Ept_P2#1         HDRstorms        Ept_P2           1.932    38.4     427.007  4.87     0                        
Ept_P2_1#1       HDRstorms        Ept_P2_1         18.958   8.4      360.256  1.97     0                        
Ept_P2_5#1       HDRstorms        Ept_P2_5         5.818    71.7     241.133  1.43     0                        
Ept_P3#1         HDRstorms        Ept_P3           5.112    52.5     389.838  3.35     0                        
Ept_P3#2         HDRstorms        Ept_P3           3.74     19.7     353.232  2.03     0                        
Ept_P7#1         HDRstorms        Ept_P7           1.884    33.5     265.902  4.06     0                        
Ept_P9#1         HDRstorms        Ept_P9           11.276   27.3     1226.1   4.7      0                        
GA1-1#1          HDRstorms        GA1-1            4.328    40.1     360.955  2.58     0                        
GA1-2#1          HDRstorms        GA1-2            17.694   32.1     1164.56  4.77     0                        
GlbColPd#1       HDRstorms        GlbColPd         10.5     46.5     744.425  1.94     0                        
I94-1#1          HDRstorms        I94-1            1.582    44.7     100.547  1.43     0                        
I94-11#1         HDRstorms        I94-11           8.226    30.6     453.567  4.52     0                        
I94-15#1         HDRstorms        I94-15           2.997    42.6     117.05   2.76     0                        
I94-4#1          HDRstorms        I94-4            3.226    49.9     94.047   1.5      0                        
I94-5#1          HDRstorms        I94-5            4.262    53.8     125.732  0.71     0                        
I94-6#1          HDRstorms        I94-6            8.246    57.7     119.547  1.03     0                        
I94-7#1          HDRstorms        I94-7            2.493    57.7     160.3    1.47     0                        
I94-8#1          HDRstorms        I94-8            4.995    47.4     336.124  7.11     0                        
I94-9#1          HDRstorms        I94-9            7.087    27.1     417.939  4.42     0                        
Id_hud_1#1       HDRstorms        Id_hud_1         17.518   49.3     638.584  4.59     0                        
In_w_cu#1        HDRstorms        In_w_cu          4.147    59.5     204.073  0.88     0                        
ML1-1#1          HDRstorms        ML1-1            196.148  51.7     2666.06  1.42     0                        
ML1W1-1#1        HDRstorms        ML1W1-1          11.929   16.1     444.461  1.64     0                        
ML1W2-1#1        HDRstorms        ML1W2-1          57.316   51.4     993.017  2.09     0                        
ML2-1#1          HDRstorms        ML2-1            32.132   45.5     1555.41  2.47     0                        
ML-ST_1#1        HDRstorms        ML-ST_1          4.608    21.2     317.218  2.21     0                        
ML-STP1#1        HDRstorms        ML-STP1          36.001   82.1     863.123  0.99     0                        
Oc10#1           HDRstorms        Oc10             6.951    55.8     241.05   2.18     0                        
Oc17_3#1         HDRstorms        Oc17_3           14.576   39       600.219  2        0                        
Oc4_GA#1         HDRstorms        Oc4_GA           5.215    33.8     103.526  1.86     0                        
OM1-1#1          HDRstorms        OM1-1            11.822   33.4     675.838  1.4      0                        
Om17_2#1         HDRstorms        Om17_2           5.137    41.3     146.016  2.26     0                        
Op10#1           HDRstorms        Op10             34.764   12.6     701.484  1.7      0                        
Op11#1           HDRstorms        Op11             5.374    53.2     623.944  3.77     0                        
Op12#1           HDRstorms        Op12             6.703    26.6     521.016  1.68     0                        
Op13#1           HDRstorms        Op13             9.997    64.2     414.86   1.45     0                        
Op14#1           HDRstorms        Op14             43.519   20.6     1453.15  3.63     0                        
Op15#1           HDRstorms        Op15             12.593   11.4     328.908  2.12     0                        
Op16#1           HDRstorms        Op16             4.469    45.4     580.707  3.61     0                        
Op9#1            HDRstorms        Op9              29.346   25.7     976.899  2.07     0                        
P-774#1          HDRstorms        P-774            8.901    40.7     686.024  3.89     0                        
PL_CDP28#1       HDRstorms        PL_CDP28         26.65    27.5     1834.66  2.16     0                        
PL1-1#1          HDRstorms        PL1-1            141.548  54.8     2553.22  1.86     0                        
PL2E1-1#1        HDRstorms        PL2E1-1          26.06    31.7     636.365  1.52     0                        
PL2E2-1#1        HDRstorms        PL2E2-1          57.839   38.6     1244.17  1.15     0                        
PL2W1-1#1        HDRstorms        PL2W1-1          7.654    29       515.246  4.06     0                        
PL-CD-P27#1      HDRstorms        PL-CD-P27        291.957  24.3     3157.49  1.73     0                        
PLDnWP1_P1#1     HDRstorms        PLDnWP1_P1       10.827   35.9     674.186  0.45     0                        
PLDnWP1_P2#1     HDRstorms        PLDnWP1_P2       5.633    42.2     241.807  0.52     0                        
PLDnWP1_P5#1     HDRstorms        PLDnWP1_P5       18.336   35.5     495.785  1.17     0                        
PLDnWP1_P7#1     HDRstorms        PLDnWP1_P7       42.028   22.2     659.56   3.1      0                        
PLDnWP1_P8#1     HDRstorms        PLDnWP1_P8       46.957   25.9     1030.27  4.23     0                        
PLDnWP1_P9#1     HDRstorms        PLDnWP1_P9       14.276   39.4     377.07   0.42     0                        
PLDnWP115o#1     HDRstorms        PLDnWP115o       18.226   19.4     685.392  1.96     0                        
PLDnWP126A#1     HDRstorms        PLDnWP126A       7.502    56.4     1331.09  1.12     0                        
PLDnWP126B#1     HDRstorms        PLDnWP126B       9.355    51       1411.27  2.09     0                        
PLDnWP126C#1     HDRstorms        PLDnWP126C       13.207   38.3     403.983  1.17     0                        
PLDnWP1P10#1     HDRstorms        PLDnWP1P10       19.76    44.4     353.872  0.58     0                        
PLDnWP1P11#1     HDRstorms        PLDnWP1P11       21.219   23.7     760.762  5.93     0                        
PLDnWP1P12#1     HDRstorms        PLDnWP1P12       19.945   48.7     532.811  1.05     0                        
PLDnWP1P13#1     HDRstorms        PLDnWP1P13       27.284   37.5     668.307  0.56     0                        
PLDnWP1P14#1     HDRstorms        PLDnWP1P14       4.278    63.5     313.572  0.97     0                        
PLDnWP1P15#1     HDRstorms        PLDnWP1P15       24.309   28.8     1734.74  0.87     0                        
PLDnWP1P17#1     HDRstorms        PLDnWP1P17       12.749   43.3     581.413  1.56     0                        
PLDnWP1Wt4#1     HDRstorms        PLDnWP1Wt4       3.414    33.9     380.1    1.66     0                        
PLFoxRn_PD#1     HDRstorms        PLFoxRn_PD       58.646   34.4     1598.77  1.13     0                        
PLGrdnGtP1#1     HDRstorms        PLGrdnGtP1       3.413    41.6     319.371  3.69     0                        
PLGrdnGtP2#1     HDRstorms        PLGrdnGtP2       27.998   29.3     956.143  2.81     0                        
PLML2ad_P1#1     HDRstorms        PLML2ad_P1       30.474   33.9     976.845  2        0                        
PLPL1AddP1#1     HDRstorms        PLPL1AddP1       32.77    37.9     680.534  1.81     0                        
PLPL1AddWt#1     HDRstorms        PLPL1AddWt       17.066   23.3     637.738  2.44     0                        
PLPL9AddP1#1     HDRstorms        PLPL9AddP1       10.522   42.7     315.064  1.5      0                        
PLPL9AddW1#1     HDRstorms        PLPL9AddW1       7.754    24.1     483.998  2.38     0                        
PLPL9AddW2#1     HDRstorms        PLPL9AddW2       4.329    23.5     440.917  3.87     0                        
PLPLAdP1P1#1     HDRstorms        PLPLAdP1P1       22.66    42.7     816.829  1.44     0                        
PLPLAdP1P2#1     HDRstorms        PLPLAdP1P2       3.75     41.8     302.28   2.01     0                        
PLTurnbryW#1     HDRstorms        PLTurnbryW       32.493   39.4     669.448  1.1      0                        
PLWetCplx1#1     HDRstorms        PLWetCplx1       21.233   31.4     1024.3   1.61     0                        
PLWetCplx2#1     HDRstorms        PLWetCplx2       10.608   45.6     747.596  1.93     0                        
PLWetCplx3#1     HDRstorms        PLWetCplx3       11.381   24.1     567.636  1.73     0                        
PLWetCplx4#1     HDRstorms        PLWetCplx4       5.311    32.9     427.574  3.46     0                        
RadI94Dtch#1     HDRstorms        RadI94Dtch       10.728   57.7     127.883  1.16     0                        
RadI94P1_1#1     HDRstorms        RadI94P1_1       6.283    50.9     267      2.8      0                        
RadioI94P1#1     HDRstorms        RadioI94P1       3.652    52.7     523      9.43     0                        
RadioI94P2#1     HDRstorms        RadioI94P2       5.162    50.4     478.598  1.47     0                        
RadioI94P3#1     HDRstorms        RadioI94P3       5.966    38.3     263.63   4.43     0                        
WL1-1#1          HDRstorms        WL1-1            40.97    49.2     3792.9   3.09     0                        
WL1E1-1#1        HDRstorms        WL1E1-1          16.613   34.2     529.075  2.08     0                        
WL1E2-1#1        HDRstorms        WL1E2-1          11.95    28.8     278.448  0.88     0                        
WL1E3-1#1        HDRstorms        WL1E3-1          23.103   36.1     388.091  1.58     0                        
WL1N2-1#1        HDRstorms        WL1N2-1          37.284   38.7     1291.16  3.85     0                        
WL1N3-1#1        HDRstorms        WL1N3-1          22.156   25.5     685.001  3.9      0                        
WL1N3-2#1        HDRstorms        WL1N3-2          32.758   28.9     963.179  1.58     0                        
WL1S1-1#1        HDRstorms        WL1S1-1          15.949   30.8     457.499  2        0                        
WL1W1-1#1        HDRstorms        WL1W1-1          30.945   32.4     412.277  3.39     0                        
WL1W2-1#1        HDRstorms        WL1W2-1          50.424   32.4     864.026  3.19     0                        
WL1W3-1#1        HDRstorms        WL1W3-1          153.505  34.6     2006.09  2.22     0                        
WL1W3-2#1        HDRstorms        WL1W3-2          19.002   33.8     491.034  2.14     0                        
WL1W3-3P#1       HDRstorms        WL1W3-3P         17.419   28.6     823.341  2.76     0                        
WL1W3-4P#1       HDRstorms        WL1W3-4P         10.74    31.9     439.519  2.05     0                        
WL1W3-5P#1       HDRstorms        WL1W3-5P         23.443   32.8     545.909  2.75     0                        
WL1W4-1#1        HDRstorms        WL1W4-1          50.333   58.4     1406.11  2.29     0                        
WL2-1#1          HDRstorms        WL2-1            55.7     42.3     2810.97  3.08     0                        
WL2N1-1#1        HDRstorms        WL2N1-1          16.71    32.4     702.795  2.19     0                        
WL2N2-1#1        HDRstorms        WL2N2-1          49.883   52.5     1003.22  2.61     0                        
WL2W10-1#1       HDRstorms        WL2W10-1         31.042   33.1     742.468  1.63     0                        
WL2W1-1#1        HDRstorms        WL2W1-1          60.27    30.2     950.908  2.34     0                        
WL2W11-1#1       HDRstorms        WL2W11-1         39.036   37.4     873.128  1.59     0                        
WL2W13-1#1       HDRstorms        WL2W13-1         27.777   42.4     929.779  1.11     0                        
WL2W14-1#1       HDRstorms        WL2W14-1         8.015    65.3     595.629  2        0                        
WL2W15-1#1       HDRstorms        WL2W15-1         38.224   61.9     706.345  0.99     0                        
WL2W2-1#1        HDRstorms        WL2W2-1          26.77    28.8     637.16   2.36     0                        
WL2W3-1#1        HDRstorms        WL2W3-1          120.735  29.6     1738.09  2.01     0                        
WL2W4-1#1        HDRstorms        WL2W4-1          25.67    35.9     656.901  2.58     0                        
WL2W5-1A#1       HDRstorms        WL2W5-1A         19.034   24.2     305.236  1.79     0                        
WL2W6-1#1        HDRstorms        WL2W6-1          37.789   45.8     596.364  1.84     0                        
WL2W7-1#1        HDRstorms        WL2W7-1          263.78   29.3     2349.17  1.32     0                        
WL2W8-1#1        HDRstorms        WL2W8-1          38.028   32.6     879.001  3.2      0                        
WL2W9-1#1        HDRstorms        WL2W9-1          16.986   48       755.892  1.77     0                        
WL3-1#1          HDRstorms        WL3-1            23.339   34.6     451.995  2.84     0                        
WL3W1-1#1        HDRstorms        WL3W1-1          22.339   26.9     424.882  3.88     0                        
WL3W2-1#1        HDRstorms        WL3W2-1          9.946    23.3     554.703  1.89     0                        
WL3W2-3#1        HDRstorms        WL3W2-3          6.565    26.8     274.4    1.21     0                        
WL3W3-1#1        HDRstorms        WL3W3-1          5.228    50.3     504.63   1.67     0                        
WL3W3-2#1        HDRstorms        WL3W3-2          13.163   65.2     726.097  1.11     0                        
WL3W3-3#1        HDRstorms        WL3W3-3          6.017    62.3     212.284  0.68     0                        
WL3W3-4#1        HDRstorms        WL3W3-4          9.592    62.3     435.097  0.87     0                        
WL4-1#1          HDRstorms        WL4-1            79.676   34.1     1740.03  3.64     0                        
WL4N2-1#1        HDRstorms        WL4N2-1          7.875    34.6     799.897  8.04     0                        
WL5-1#1          HDRstorms        WL5-1            58.307   10.5     918.393  3.16     0                        
WL5-10#1         HDRstorms        WL5-10           1.298    51.5     126.377  1.03     0                        
WL5-5#1          HDRstorms        WL5-5            3.376    57.7     174.708  0.95     0                        
WL5S1-1#1        HDRstorms        WL5S1-1          42.079   52.5     930.924  1.97     0                        
WL5W1-2#1        HDRstorms        WL5W1-2          8.388    32.7     320.673  1.74     0                        
WL5W1-3#1        HDRstorms        WL5W1-3          23.93    36.7     470.641  0.84     0                        
WL5W3-1#1        HDRstorms        WL5W3-1          42.742   45       1102.38  1.34     0                        
WL5W3-2#1        HDRstorms        WL5W3-2          6.088    61.3     300.203  0.21     0                        
WL5W3-4#1        HDRstorms        WL5W3-4          11.912   62.3     350.506  0.59     0                        
WL5W3-5#1        HDRstorms        WL5W3-5          5.383    62.3     298.287  1.02     0                        
WL5W4-1#1        HDRstorms        WL5W4-1          22.869   55.3     1858.04  5.55     0                        
WL5W4-2#1        HDRstorms        WL5W4-2          6.475    62.2     274.481  0.33     0                        
WL5W4-3#1        HDRstorms        WL5W4-3          14.475   62.3     619.203  0.26     0                        
WL5W5-1#1        HDRstorms        WL5W5-1          2.879    43.5     355.936  5.52     0                        
WL5W5-2#1        HDRstorms        WL5W5-2          10.704   48.6     645.945  3.37     0                        
WL6W1-1#1        HDRstorms        WL6W1-1          37.337   35.9     842.44   3.73     0                        
WL6W2-1#1        HDRstorms        WL6W2-1          41.588   29.6     819.252  3.29     0                        
WLMuirP1#1       HDRstorms        WLMuirP1         10.554   65.3     751.549  2.37     0                        
WLMuirP2#1       HDRstorms        WLMuirP2         8.669    62.5     291.299  0.76     0                        
WLOp13_4#1       HDRstorms        WLOp13_4         3.829    62.9     295.359  1.59     0                        
WL-PdV1#1        HDRstorms        WL-PdV1          15.904   59.7     664.411  1.61     0                        
WL-PdV2#1        HDRstorms        WL-PdV2          11.284   45.5     548.051  4.36     0                        
WL-RT-P1#1       HDRstorms        WL-RT-P1         19.062   36       2407.62  6.81     0                        
WL-SamPd#1       HDRstorms        WL-SamPd         72.32    58.8     1316.14  1.97     0                        
WL-WL117#1       HDRstorms        WL-WL117         20.025   60       368.997  2.66     0                        
WL-WL-2#1        HDRstorms        WL-WL-2          14.12    61.7     751.128  3.28     0                        
WL-WL-21#1       HDRstorms        WL-WL-21         23.846   61       624.528  1.28     0                        

[SUBAREAS]
;;Subcatchment   N-Imperv   N-Perv     S-Imperv   S-Perv     PctZero    RouteTo    PctRouted 
;;-------------- ---------- ---------- ---------- ---------- ---------- ---------- ----------
1072#1           0.014      0.3        0.1        0.2        0          OUTLET    
1301#1           0.014      0.3        0.1        0.2        0          OUTLET    
2857#1           0.014      0.3        0.1        0.2        0          OUTLET    
2949#1           0.014      0.3        0.1        0.2        0          OUTLET    
446#1            0.014      0.3        0.1        0.2        0          OUTLET    
AL1-1#1          0.014      0.3        0.1        0.2        0          OUTLET    
AL1N1-1#1        0.014      0.3        0.1        0.2        0          OUTLET    
AL1N2-1#1        0.014      0.3        0.1        0.2        0          OUTLET    
AL1N2-2#1        0.014      0.3        0.1        0.2        0          OUTLET    
AL1N2-3#1        0.014      0.3        0.1        0.2        0          OUTLET    
AL1S1-1#1        0.014      0.3        0.1        0.2        0          OUTLET    
BL_CDP42#1       0.014      0.3        0.1        0.2        0          OUTLET    
BLFwyMdwP1#1     0.014      0.3        0.1        0.2        0          OUTLET    
BLFwyMdwP4#1     0.014      0.3        0.1        0.2        0          OUTLET    
BLFwyMdwW5#1     0.014      0.3        0.1        0.2        0          OUTLET    
CD_P20#1         0.014      0.3        0.1        0.2        0          OUTLET    
CD-P25#1         0.014      0.3        0.1        0.2        0          OUTLET    
CD-P25.1#1       0.014      0.3        0.1        0.2        0          OUTLET    
CL1-1#1          0.014      0.3        0.1        0.2        0          OUTLET    
CL1N1-1#1        0.014      0.3        0.1        0.2        0          OUTLET    
CL1N2-1#1        0.014      0.3        0.1        0.2        0          OUTLET    
CL1N3-1#1        0.014      0.3        0.1        0.2        0          OUTLET    
CL1N4-1#1        0.014      0.3        0.1        0.2        0          OUTLET    
CL1N5-1#1        0.014      0.3        0.1        0.2        0          OUTLET    
CL1N6-1#1        0.014      0.3        0.1        0.2        0          OUTLET    
CL1W1-1#1        0.014      0.3        0.1        0.2        0          OUTLET    
CL1W2-1#1        0.014      0.3        0.1        0.2        0          OUTLET    
CL2-1#1          0.014      0.3        0.1        0.2        0          OUTLET    
CL3-1#1          0.014      0.3        0.1        0.2        0          OUTLET    
CLBLdCDP38#1     0.014      0.3        0.1        0.2        0          OUTLET    
CLCL1Ad12#1      0.014      0.3        0.1        0.2        0          OUTLET    
CLHghHt1P1#1     0.014      0.3        0.1        0.2        0          OUTLET    
CLQryRdgPA#1     0.014      0.3        0.1        0.2        0          OUTLET    
CLWdCrsP1#1      0.014      0.3        0.1        0.2        0          OUTLET    
CLWdCrsP2#1      0.014      0.3        0.1        0.2        0          OUTLET    
CLWdCrsP3#1      0.014      0.3        0.1        0.2        0          OUTLET    
Ep_NC2.1#1       0.014      0.3        0.1        0.2        0          OUTLET    
Ep_NC2.1#2       0.014      0.3        0.1        0.2        0          OUTLET    
Ep_NC2.2#1       0.014      0.3        0.1        0.2        0          OUTLET    
Ep_NC2.2#2       0.014      0.3        0.1        0.2        0          OUTLET    
EP1-1#1          0.014      0.3        0.1        0.2        0          OUTLET    
EP2-1#1          0.014      0.3        0.1        0.2        0          OUTLET    
EP2-2p#1         0.014      0.3        0.1        0.2        0          OUTLET    
EP2-3#1          0.014      0.3        0.1        0.2        0          OUTLET    
EP2-5#1          0.014      0.3        0.1        0.2        0          OUTLET    
EP3-2#1          0.014      0.3        0.1        0.2        0          OUTLET    
EP4-1#1          0.014      0.3        0.1        0.2        0          OUTLET    
EP4-3#1          0.014      0.3        0.1        0.2        0          OUTLET    
Ept_P1#1         0.014      0.3        0.1        0.2        0          OUTLET    
Ept_P10#1        0.014      0.3        0.1        0.2        0          OUTLET    
Ept_P13#1        0.014      0.3        0.1        0.2        0          OUTLET    
Ept_P18#1        0.014      0.3        0.1        0.2        0          OUTLET    
Ept_P2#1         0.014      0.3        0.1        0.2        0          OUTLET    
Ept_P2_1#1       0.014      0.3        0.1        0.2        0          OUTLET    
Ept_P2_5#1       0.014      0.3        0.1        0.2        0          OUTLET    
Ept_P3#1         0.014      0.3        0.1        0.2        0          OUTLET    
Ept_P3#2         0.014      0.3        0.1        0.2        0          OUTLET    