[TITLE]
Scenario Run :  BASE
  XP File Date Stamp 11.70CP SPATIAL0.55 Input and Output Files SW 1 0 0 A1

[OPTIONS]
;Option and Files Scenario Set: BASE, Base Simulation Options
FLOW_UNITS	CFS
INFILTRATION	HORTON
FLOW_ROUTING	DYNWAVE
ALLOW_PONDING	NO
DRY_DAYS	0.000000
SKIP_STEADY_STATE 	NO
IGNORE_RAINFALL	NO
IGNORE_SNOWMELT	NO
IGNORE_GROUNDWATER	NO
IGNORE_QUALITY	NO
FORCE_MAIN_EQUATION	H-W
LINK_OFFSETS	DEPTH
MIN_SLOPE	0.100000
START_DATE	02/22/2002
START_TIME	00:00
END_DATE	02/23/2002
END_TIME	00:00
REPORT_START_DATE	02/22/2002
REPORT_START_TIME	00:00
SWEEP_START	01/01
SWEEP_END	12/31
WET_STEP	00:05:00
DRY_STEP	01:00:00
ROUTING_STEP	2
REPORT_STEP	00:16:40
INERTIAL_DAMPING	NONE
VARIABLE_STEP	0.750000
MINIMUM_STEP	0.5
LENGTHENING_STEP	0
MIN_SURFAREA	12.566000
NORMAL_FLOW_LIMITED	BOTH

[FILES]

[RAINGAGES]

[HYDROGRAPHS]

[EVAPORATION]
CONSTANT	0.100000
DRY_ONLY	NO

[TEMPERATURE]

[ADJUSTMENTS]

[SUBCATCHMENTS]

[SUBAREAS]

[INFILTRATION]

[AQUIFERS]

[GROUNDWATER]

[GWF]

[SNOWPACKS]

[JUNCTIONS]
FMH1	802.000000	48.000000	0.000000	0.000000	0.000000
FMH2	978.000000	50.000000	0.000000	0.000000	0.000000
MH#1	941.500000	4.000000	0.000000	0.000000	0.000000
MH#10	978.310000	6.940000	0.000000	0.000000	0.000000
MH#11	978.560000	6.940000	0.000000	0.000000	0.000000
MH#12	985.810000	6.190000	0.000000	0.000000	0.000000
MH#13	990.810000	6.190000	0.000000	0.000000	0.000000
MH#14	997.060000	6.440000	0.000000	0.000000	0.000000
MH#15	1003.310000	4.690000	0.000000	0.000000	0.000000
MH#16	1005.560000	10.940000	0.000000	0.000000	0.000000
MH#17	1005.810000	5.690000	0.000000	0.000000	0.000000
MH#18	1008.060000	12.190000	0.000000	0.000000	0.000000
MH#19	1015.810000	6.690000	0.000000	0.000000	0.000000
MH#2	942.590000	4.910000	0.000000	0.000000	0.000000
MH#20	1017.060000	5.940000	0.000000	0.000000	0.000000
MH#21	1019.560000	6.940000	0.000000	0.000000	0.000000
MH#22	1024.560000	5.940000	0.000000	0.000000	0.000000
MH#23	1026.560000	6.440000	0.000000	0.000000	0.000000
MH#24	1028.560000	6.940000	0.000000	0.000000	0.000000
MH#25	1030.560000	6.440000	0.000000	0.000000	0.000000
MH#26	1032.560000	5.940000	0.000000	0.000000	0.000000
MH#27	1034.560000	5.940000	0.000000	0.000000	0.000000
MH#28	1036.560000	6.940000	0.000000	0.000000	0.000000
MH#29	1041.560000	6.940000	0.000000	0.000000	0.000000
MH#3	955.220000	7.280000	0.000000	0.000000	0.000000
MH#30	1046.560000	7.440000	0.000000	0.000000	0.000000
MH#31	1062.180000	6.320000	0.000000	0.000000	0.000000
MH#32	1072.860000	7.640000	0.000000	0.000000	0.000000
MH#4	965.220000	7.280000	0.000000	0.000000	0.000000
MH#5	970.080000	6.920000	0.000000	0.000000	0.000000
MH#6	973.220000	7.280000	0.000000	0.000000	0.000000
MH#7	974.960000	8.540000	0.000000	0.000000	0.000000
MH#8	976.690000	6.310000	0.000000	0.000000	0.000000
MH#9	978.040000	5.960000	0.000000	0.000000	0.000000
S-1-01	855.320000	4.560000	0.000000	0.000000	0.000000
S-1-02	854.570000	8.510000	0.000000	0.000000	0.000000
S-1-03	852.040000	8.040000	0.000000	0.000000	0.000000
S-1-04	851.130000	7.480000	0.000000	0.000000	0.000000
S-1-05	852.290000	6.310000	0.000000	0.000000	0.000000
S-1-06	857.620000	4.320000	0.000000	0.000000	0.000000
S-1-07	856.180000	4.700000	0.000000	0.000000	0.000000
S-1-08	853.200000	6.310000	0.000000	0.000000	0.000000
S-1-09	854.430000	6.310000	0.000000	0.000000	0.000000
S-1-09A	854.660000	6.310000	0.000000	0.000000	0.000000
S-1-10	849.910000	6.380000	0.000000	0.000000	0.000000
S-1-11	843.300000	4.510000	0.000000	0.000000	0.000000
S-1-12	844.430000	10.230000	0.000000	0.000000	0.000000
S-1-15	854.070000	6.090000	0.000000	0.000000	0.000000
S-1-16	854.260000	6.150000	0.000000	0.000000	0.000000
S-1-18	854.890000	6.330000	0.000000	0.000000	0.000000
S-1-19	855.180000	6.330000	0.000000	0.000000	0.000000
S-1-20	855.870000	8.750000	0.000000	0.000000	0.000000
S-1-21	855.800000	6.650000	0.000000	0.000000	0.000000
S-1-23	858.710000	3.340000	0.000000	0.000000	0.000000
S-1-24	856.990000	5.000000	0.000000	0.000000	0.000000
S-1-25	859.110000	4.260000	0.000000	0.000000	0.000000
S-1-26	840.570000	5.900000	0.000000	0.000000	0.000000
S-1-27	835.580000	5.620000	0.000000	0.000000	0.000000
S-1-27A	832.270000	4.030000	0.000000	0.000000	0.000000
S-1-28	835.620000	5.420000	0.000000	0.000000	0.000000
S-1-29	841.040000	9.660000	0.000000	0.000000	0.000000
S-1-31	846.280000	11.500000	0.000000	0.000000	0.000000
S-1-35	847.760000	8.990000	0.000000	0.000000	0.000000
S-1-40	850.230000	8.090000	0.000000	0.000000	0.000000
S-1-41	842.150000	8.520000	0.000000	0.000000	0.000000
S-1-42	851.530000	4.030000	0.000000	0.000000	0.000000
S-1-43	845.560000	5.630000	0.000000	0.000000	0.000000
S-1-45	843.150000	12.320000	0.000000	0.000000	0.000000
S-1-46	828.470000	12.320000	0.000000	0.000000	0.000000
S-1-47	829.470000	4.000000	0.000000	0.000000	0.000000
S-1-48	842.190000	4.000000	0.000000	0.000000	0.000000
S-1-49	837.320000	8.750000	0.000000	0.000000	0.000000
S-1-50	836.770000	11.000000	0.000000	0.000000	0.000000
S-1-51	836.220000	60.790000	0.000000	0.000000	0.000000
S-1-52	835.850000	10.700000	0.000000	0.000000	0.000000
S-1-53	835.230000	8.260000	0.000000	0.000000	0.000000
S-1-54	834.030000	5.600000	0.000000	0.000000	0.000000
S-1-55	833.530000	4.800000	0.000000	0.000000	0.000000
S-1-56	831.070000	4.350000	0.000000	0.000000	0.000000
S-1-57	829.350000	4.450000	0.000000	0.000000	0.000000
S-1-58	828.310000	4.150000	0.000000	0.000000	0.000000
S-1-59	827.810000	3.900000	0.000000	0.000000	0.000000
S-1-60	825.150000	6.490000	0.000000	0.000000	0.000000
S-1-61	823.300000	5.290000	0.000000	0.000000	0.000000
S-1-62	818.160000	5.740000	0.000000	0.000000	0.000000
S-1-63	812.180000	5.920000	0.000000	0.000000	0.000000
S-1-64	810.460000	5.920000	0.000000	0.000000	0.000000
S-1-65	811.690000	5.920000	0.000000	0.000000	0.000000
S-1-66	811.680000	5.920000	0.000000	0.000000	0.000000
S-1-67	808.970000	5.600000	0.000000	0.000000	0.000000
S-1-68	806.960000	3.620000	0.000000	0.000000	0.000000
S-1-69	814.950000	5.920000	0.000000	0.000000	0.000000
S-1-70	816.440000	5.920000	0.000000	0.000000	0.000000
S-1-71	818.390000	5.920000	0.000000	0.000000	0.000000
S-1-72	819.440000	5.920000	0.000000	0.000000	0.000000
S-1-73	804.410000	7.140000	0.000000	0.000000	0.000000
S-1-74	804.390000	6.710000	0.000000	0.000000	0.000000
S-1-75	802.670000	5.450000	0.000000	0.000000	0.000000
S-1-76	797.160000	6.270000	0.000000	0.000000	0.000000
S-1-77	798.700000	3.820000	0.000000	0.000000	0.000000
S-1-78	797.680000	3.810000	0.000000	0.000000	0.000000
S-1-79	796.710000	5.250000	0.000000	0.000000	0.000000
S-1-80	803.890000	2.900000	0.000000	0.000000	0.000000
S-1-E	837.770000	6.920000	0.000000	0.000000	0.000000
S-10-H	1118.790000	4.040000	0.000000	0.000000	0.000000
S-100-H	1096.190000	8.200000	0.000000	0.000000	0.000000
S-101-H	1098.510000	8.460000	0.000000	0.000000	0.000000
S-102-H	1100.430000	7.160000	0.000000	0.000000	0.000000
S-103-H	1088.700000	15.290000	0.000000	0.000000	0.000000
S-104-H	1089.450000	15.260000	0.000000	0.000000	0.000000
S-105-H	1093.060000	10.290000	0.000000	0.000000	0.000000
S-106-H	1093.970000	12.170000	0.000000	0.000000	0.000000
S-107-H	1095.970000	11.550000	0.000000	0.000000	0.000000
S-108-H	1096.310000	11.550000	0.000000	0.000000	0.000000
S-109-H	1097.500000	11.800000	0.000000	0.000000	0.000000
S-11-H	1119.110000	4.470000	0.000000	0.000000	0.000000
S-110-H	1099.950000	11.350000	0.000000	0.000000	0.000000
S-111-H	1100.840000	12.120000	0.000000	0.000000	0.000000
S-112-H	1108.720000	12.990000	0.000000	0.000000	0.000000
S-113-H	1111.680000	10.430000	0.000000	0.000000	0.000000
S-114-H	1113.370000	10.000000	0.000000	0.000000	0.000000
S-115-H	1116.300000	9.650000	0.000000	0.000000	0.000000
S-116-H	1123.800000	6.540000	0.000000	0.000000	0.000000
S-117-H	1114.080000	10.920000	0.000000	0.000000	0.000000
S-118-H	1124.720000	7.280000	0.000000	0.000000	0.000000
S-119-H	1129.230000	6.100000	0.000000	0.000000	0.000000
S-12-H	1113.270000	9.230000	0.000000	0.000000	0.000000
S-120-H	1125.460000	6.980000	0.000000	0.000000	0.000000
S-121-H	1129.300000	5.830000	0.000000	0.000000	0.000000
S-122-H	1133.130000	5.860000	0.000000	0.000000	0.000000
S-123-H	1090.320000	14.670000	0.000000	0.000000	0.000000
S-124-H	1091.310000	12.690000	0.000000	0.000000	0.000000
S-125-H	1092.000000	9.840000	0.000000	0.000000	0.000000
S-126-H	1093.270000	9.850000	0.000000	0.000000	0.000000
S-127-H	1095.930000	8.050000	0.000000	0.000000	0.000000
S-128-H	1100.730000	7.930000	0.000000	0.000000	0.000000
S-129-H	1104.670000	7.270000	0.000000	0.000000	0.000000
S-13-H	1119.620000	3.850000	0.000000	0.000000	0.000000
S-130-H	1109.260000	6.690000	0.000000	0.000000	0.000000
S-131-H	1111.650000	6.090000	0.000000	0.000000	0.000000
S-132-H	1113.390000	6.010000	0.000000	0.000000	0.000000
S-133-H	1114.630000	6.360000	0.000000	0.000000	0.000000
S-134-H	1116.770000	6.400000	0.000000	0.000000	0.000000
S-135-H	1118.030000	7.230000	0.000000	0.000000	0.000000
S-136-H	1119.340000	8.290000	0.000000	0.000000	0.000000
S-137-H	1121.760000	7.380000	0.000000	0.000000	0.000000
S-138-H	1124.460000	7.300000	0.000000	0.000000	0.000000
S-139-H	1128.600000	6.910000	0.000000	0.000000	0.000000
S-14-H	1116.020000	3.430000	0.000000	0.000000	0.000000
S-140-H	1139.200000	5.800000	0.000000	0.000000	0.000000
S-141-H	1136.400000	6.200000	0.000000	0.000000	0.000000
S-142-H	1129.370000	6.880000	0.000000	0.000000	0.000000
S-143-H	1126.800000	8.860000	0.000000	0.000000	0.000000
S-144-H	1126.190000	9.110000	0.000000	0.000000	0.000000
S-145-H	1129.620000	7.080000	0.000000	0.000000	0.000000
S-146-H	1134.110000	6.990000	0.000000	0.000000	0.000000
S-147-H	1135.630000	7.130000	0.000000	0.000000	0.000000
S-148-H	1125.370000	6.930000	0.000000	0.000000	0.000000
S-149-H	1122.520000	6.880000	0.000000	0.000000	0.000000
S-15-E	878.400000	7.600000	0.000000	0.000000	0.000000
S-15-H	1116.740000	3.950000	0.000000	0.000000	0.000000
S-150-H	1119.690000	7.510000	0.000000	0.000000	0.000000
S-151-H	1114.200000	7.100000	0.000000	0.000000	0.000000
S-152-H	1112.120000	6.580000	0.000000	0.000000	0.000000
S-153-H	1107.400000	8.800000	0.000000	0.000000	0.000000
S-154-H	1111.940000	8.060000	0.000000	0.000000	0.000000
S-155-H	1115.540000	7.060000	0.000000	0.000000	0.000000
S-156-H	1124.050000	7.350000	0.000000	0.000000	0.000000
S-157-H	1128.500000	7.100000	0.000000	0.000000	0.000000
S-158-H	1130.100000	7.100000	0.000000	0.000000	0.000000
S-159-H	1113.590000	8.210000	0.000000	0.000000	0.000000
S-16-E	879.210000	8.990000	0.000000	0.000000	0.000000
S-16-H	1118.130000	3.150000	0.000000	0.000000	0.000000
S-160-H	1114.570000	8.480000	0.000000	0.000000	0.000000
S-161-H	1118.200000	3.600000	0.000000	0.000000	0.000000
S-162-H	1123.260000	7.040000	0.000000	0.000000	0.000000
S-163-H	1129.140000	8.260000	0.000000	0.000000	0.000000
S-164-H	1134.920000	7.380000	0.000000	0.000000	0.000000
S-165-H	1138.420000	7.780000	0.000000	0.000000	0.000000
S-166-H	1141.690000	6.410000	0.000000	0.000000	0.000000
S-17-E	879.690000	10.310000	0.000000	0.000000	0.000000
S-17-H	1121.290000	3.000000	0.000000	0.000000	0.000000
S-18-E	880.810000	9.920000	0.000000	0.000000	0.000000
S-18-H	1119.960000	4.500000	0.000000	0.000000	0.000000
S-19-H	1121.000000	4.540000	0.000000	0.000000	0.000000
S-2-01	797.940000	5.000000	0.000000	0.000000	0.000000
S-2-02	795.600000	3.390000	0.000000	0.000000	0.000000
S-2-03	793.750000	5.800000	0.000000	0.000000	0.000000
S-2-04	783.810000	5.210000	0.000000	0.000000	0.000000
S-2-05	781.550000	4.710000	0.000000	0.000000	0.000000
S-2-06	780.900000	3.040000	0.000000	0.000000	0.000000
S-2-07	779.760000	4.220000	0.000000	0.000000	0.000000
S-2-08	777.620000	7.390000	0.000000	0.000000	0.000000
S-2-09	792.210000	8.010000	0.000000	0.000000	0.000000
S-2-10	792.500000	3.910000	0.000000	0.000000	0.000000
S-2-11	784.670000	3.650000	0.000000	0.000000	0.000000
S-2-12	785.760000	8.310000	0.000000	0.000000	0.000000
S-2-13	781.230000	8.640000	0.000000	0.000000	0.000000
S-2-14	774.460000	8.750000	0.000000	0.000000	0.000000
S-2-15	768.260000	4.490000	0.000000	0.000000	0.000000
S-2-16	765.720000	7.670000	0.000000	0.000000	0.000000
S-2-16A	765.370000	3.000000	0.000000	0.000000	0.000000
S-2-16B	765.210000	3.000000	0.000000	0.000000	0.000000
S-2-17	798.570000	4.150000	0.000000	0.000000	0.000000
S-2-18	790.550000	5.740000	0.000000	0.000000	0.000000
S-2-19	789.650000	2.600000	0.000000	0.000000	0.000000
S-2-20	785.780000	4.310000	0.000000	0.000000	0.000000
S-2-21	786.780000	7.180000	0.000000	0.000000	0.000000
S-2-22	782.030000	6.050000	0.000000	0.000000	0.000000
S-2-23	786.090000	7.840000	0.000000	0.000000	0.000000
S-2-24	779.470000	5.420000	0.000000	0.000000	0.000000
S-2-25	782.450000	8.750000	0.000000	0.000000	0.000000
S-2-26	775.530000	6.720000	0.000000	0.000000	0.000000
S-2-27	781.880000	6.340000	0.000000	0.000000	0.000000
S-2-28	774.060000	7.800000	0.000000	0.000000	0.000000
S-2-29	779.710000	5.850000	0.000000	0.000000	0.000000
S-2-30	770.050000	9.350000	0.000000	0.000000	0.000000
S-2-31	771.850000	11.650000	0.000000	0.000000	0.000000
S-2-32	769.820000	11.690000	0.000000	0.000000	0.000000
S-2-33	772.610000	10.500000	0.000000	0.000000	0.000000
S-2-34	776.860000	3.600000	0.000000	0.000000	0.000000
S-2-35	776.560000	3.600000	0.000000	0.000000	0.000000
S-2-36	775.780000	4.420000	0.000000	0.000000	0.000000
S-2-37	774.300000	6.580000	0.000000	0.000000	0.000000
S-2-39	778.300000	6.580000	0.000000	0.000000	0.000000
S-2-40	762.380000	4.600000	0.000000	0.000000	0.000000
S-2-41	754.580000	3.000000	0.000000	0.000000	0.000000
S-2-42	747.550000	4.600000	0.000000	0.000000	0.000000
S-2-43	719.160000	5.060000	0.000000	0.000000	0.000000
S-2-44	715.490000	5.000000	0.000000	0.000000	0.000000
S-2-45	622.600000	6.460000	0.000000	0.000000	0.000000
S-2-46	645.880000	6.460000	0.000000	0.000000	0.000000
S-2-47	663.790000	6.460000	0.000000	0.000000	0.000000
S-2-48	670.470000	6.460000	0.000000	0.000000	0.000000
S-2-49	681.070000	7.000000	0.000000	0.000000	0.000000
S-2-50	703.750000	6.460000	0.000000	0.000000	0.000000
S-2-51	704.380000	10.730000	0.000000	0.000000	0.000000
S-2-52	705.140000	5.630000	0.000000	0.000000	0.000000
S-2-53	705.770000	7.330000	0.000000	0.000000	0.000000
S-2-54	707.730000	6.350000	0.000000	0.000000	0.000000
S-2-55	708.330000	5.690000	0.000000	0.000000	0.000000
S-2-56	711.830000	5.700000	0.000000	0.000000	0.000000
S-2-57	715.830000	4.650000	0.000000	0.000000	0.000000
S-2-60	718.890000	4.420000	0.000000	0.000000	0.000000
S-2-61	720.470000	7.150000	0.000000	0.000000	0.000000
S-2-65	723.120000	7.870000	0.000000	0.000000	0.000000
S-2-66	721.100000	5.150000	0.000000	0.000000	0.000000
S-2-67	718.330000	4.830000	0.000000	0.000000	0.000000
S-2-68	716.560000	4.800000	0.000000	0.000000	0.000000
S-2-69	712.190000	8.030000	0.000000	0.000000	0.000000
S-2-70	706.510000	6.750000	0.000000	0.000000	0.000000
S-2-71	705.240000	8.030000	0.000000	0.000000	0.000000
S-2-72	713.970000	5.600000	0.000000	0.000000	0.000000
S-2-73	714.460000	5.580000	0.000000	0.000000	0.000000
S-2-74	717.480000	5.130000	0.000000	0.000000	0.000000
S-2-75	719.790000	4.320000	0.000000	0.000000	0.000000
S-2-76	721.350000	4.940000	0.000000	0.000000	0.000000
S-2-77	724.440000	4.560000	0.000000	0.000000	0.000000
S-2-78	725.970000	3.560000	0.000000	0.000000	0.000000
S-2-79	733.380000	4.700000	0.000000	0.000000	0.000000
S-2-81	733.870000	4.280000	0.000000	0.000000	0.000000
S-2-82	735.800000	7.210000	0.000000	0.000000	0.000000
S-2-83	736.520000	8.220000	0.000000	0.000000	0.000000
S-2-84	738.310000	5.160000	0.000000	0.000000	0.000000
S-2-85	739.810000	8.050000	0.000000	0.000000	0.000000
S-2-86	742.640000	5.940000	0.000000	0.000000	0.000000
S-2-87	746.490000	4.740000	0.000000	0.000000	0.000000
S-2-88	750.180000	5.320000	0.000000	0.000000	0.000000
S-2-E	851.170000	7.650000	0.000000	0.000000	0.000000
S-20-E	881.480000	9.720000	0.000000	0.000000	0.000000
S-20-H	1124.910000	3.940000	0.000000	0.000000	0.000000
S-20A-E	895.230000	9.220000	0.000000	0.000000	0.000000
S-20B-E	898.110000	8.270000	0.000000	0.000000	0.000000
S-21-E	882.520000	10.450000	0.000000	0.000000	0.000000
S-21-H	1126.090000	3.560000	0.000000	0.000000	0.000000
S-22-E	886.000000	8.600000	0.000000	0.000000	0.000000
S-22-H	1128.620000	5.100000	0.000000	0.000000	0.000000
S-23-E	888.100000	7.100000	0.000000	0.000000	0.000000
S-23-H	1131.420000	3.970000	0.000000	0.000000	0.000000
S-24-E	889.700000	7.100000	0.000000	0.000000	0.000000
S-24-H	1129.680000	8.190000	0.000000	0.000000	0.000000
S-25-E	893.400000	6.600000	0.000000	0.000000	0.000000
S-25-H	1133.250000	5.340000	0.000000	0.000000	0.000000
S-26-E	897.800000	6.500000	0.000000	0.000000	0.000000
S-26-H	1135.360000	5.580000	0.000000	0.000000	0.000000
S-27-E	905.600000	8.000000	0.000000	0.000000	0.000000
S-27-H	1141.900000	5.730000	0.000000	0.000000	0.000000
S-28-E	916.500000	7.500000	0.000000	0.000000	0.000000
S-28-H	1142.590000	6.410000	0.000000	0.000000	0.000000
S-29-E	930.120000	4.280000	0.000000	0.000000	0.000000
S-29-H	1143.300000	4.850000	0.000000	0.000000	0.000000
S-3-E	872.040000	5.500000	0.000000	0.000000	0.000000
S-30-E	930.960000	15.040000	0.000000	0.000000	0.000000
S-30-H	1143.300000	5.850000	0.000000	0.000000	0.000000
S-31-E	934.460000	16.840000	0.000000	0.000000	0.000000
S-31-H	1144.560000	5.930000	0.000000	0.000000	0.000000
S-32-E	938.880000	14.000000	0.000000	0.000000	0.000000
S-32-H	1108.130000	7.590000	0.000000	0.000000	0.000000
S-33-E	940.580000	10.900000	0.000000	0.000000	0.000000
S-33-H	1107.400000	9.330000	0.000000	0.000000	0.000000
S-34-E	945.120000	5.900000	0.000000	0.000000	0.000000
S-34-H	1108.000000	10.180000	0.000000	0.000000	0.000000
S-35-H	1106.400000	8.690000	0.000000	0.000000	0.000000
S-36-E	942.970000	5.950000	0.000000	0.000000	0.000000
S-36-H	1109.500000	8.220000	0.000000	0.000000	0.000000
S-37-E	941.730000	8.800000	0.000000	0.000000	0.000000
S-37-H	1104.800000	9.200000	0.000000	0.000000	0.000000
S-38-E	944.800000	5.140000	0.000000	0.000000	0.000000
S-38-H	1105.470000	4.620000	0.000000	0.000000	0.000000
S-39-E	942.880000	6.950000	0.000000	0.000000	0.000000
S-39-H	1107.100000	6.160000	0.000000	0.000000	0.000000
S-4-04	852.050000	7.300000	0.000000	0.000000	0.000000
S-4-05	858.370000	3.080000	0.000000	0.000000	0.000000
S-4-06	854.270000	5.090000	0.000000	0.000000	0.000000
S-4-07	842.330000	15.030000	0.000000	0.000000	0.000000
S-4-09	826.580000	5.000000	0.000000	0.000000	0.000000
S-4-11	824.790000	24.470000	0.000000	0.000000	0.000000
S-4-13	824.370000	20.230000	0.000000	0.000000	0.000000
S-4-14	822.130000	8.710000	0.000000	0.000000	0.000000
S-4-21	848.340000	6.940000	0.000000	0.000000	0.000000
S-4-22	853.370000	7.700000	0.000000	0.000000	0.000000
S-4-23	854.250000	10.750000	0.000000	0.000000	0.000000
S-4-42	863.810000	5.400000	0.000000	0.000000	0.000000
S-4-43	839.950000	8.290000	0.000000	0.000000	0.000000
S-4-44	820.430000	8.420000	0.000000	0.000000	0.000000
S-4-45	818.900000	8.240000	0.000000	0.000000	0.000000
S-4-46	824.410000	5.880000	0.000000	0.000000	0.000000
S-4-47	829.160000	6.210000	0.000000	0.000000	0.000000
S-4-48	816.860000	5.400000	0.000000	0.000000	0.000000
S-4-50	821.590000	7.040000	0.000000	0.000000	0.000000
S-4-51	826.100000	4.970000	0.000000	0.000000	0.000000
S-4-52	826.630000	6.620000	0.000000	0.000000	0.000000
S-4-53	837.070000	9.550000	0.000000	0.000000	0.000000
S-4-54	847.650000	7.500000	0.000000	0.000000	0.000000
S-4-56	840.370000	3.050000	0.000000	0.000000	0.000000
S-4-57	832.700000	10.510000	0.000000	0.000000	0.000000
S-4-58	831.010000	8.740000	0.000000	0.000000	0.000000
S-4-59	830.540000	7.230000	0.000000	0.000000	0.000000
S-4-60	828.690000	6.600000	0.000000	0.000000	0.000000
S-4-62	826.640000	5.710000	0.000000	0.000000	0.000000
S-4-64	823.090000	4.560000	0.000000	0.000000	0.000000
S-4-65	815.040000	4.950000	0.000000	0.000000	0.000000
S-4-66	814.250000	9.410000	0.000000	0.000000	0.000000
S-4-67	811.770000	7.320000	0.000000	0.000000	0.000000
S-4-67A	807.280000	7.320000	0.000000	0.000000	0.000000
S-4-68	815.680000	7.850000	0.000000	0.000000	0.000000
S-4-69	827.240000	5.210000	0.000000	0.000000	0.000000
S-4-72	828.770000	4.480000	0.000000	0.000000	0.000000
S-4-75	831.730000	3.590000	0.000000	0.000000	0.000000
S-4-77	828.400000	4.460000	0.000000	0.000000	0.000000
S-4-78	825.300000	6.150000	0.000000	0.000000	0.000000
S-4-79	813.050000	9.080000	0.000000	0.000000	0.000000
S-4-80	821.680000	6.900000	0.000000	0.000000	0.000000
S-4-80A	816.560000	4.970000	0.000000	0.000000	0.000000
S-4-81	813.650000	9.080000	0.000000	0.000000	0.000000
S-4-82	814.670000	9.080000	0.000000	0.000000	0.000000
S-4-83	815.750000	9.080000	0.000000	0.000000	0.000000
S-4-84	815.920000	9.050000	0.000000	0.000000	0.000000
S-4-85	816.490000	9.050000	0.000000	0.000000	0.000000
S-4-86	811.450000	9.080000	0.000000	0.000000	0.000000
S-4-87	813.740000	5.900000	0.000000	0.000000	0.000000
S-4-88	813.050000	6.700000	0.000000	0.000000	0.000000
S-4-89	809.660000	9.080000	0.000000	0.000000	0.000000
S-4-90	814.760000	3.400000	0.000000	0.000000	0.000000
S-4-91	808.270000	9.080000	0.000000	0.000000	0.000000
S-4-92	811.590000	3.260000	0.000000	0.000000	0.000000
S-4-93	805.050000	4.240000	0.000000	0.000000	0.000000
S-4-94	809.020000	6.700000	0.000000	0.000000	0.000000
S-4-95	806.600000	9.080000	0.000000	0.000000	0.000000
S-4-96	805.630000	4.600000	0.000000	0.000000	0.000000
S-4-97	807.300000	6.700000	0.000000	0.000000	0.000000
S-4-98	804.600000	4.600000	0.000000	0.000000	0.000000
S-4-99	805.920000	6.700000	0.000000	0.000000	0.000000
S-4-E	874.010000	5.850000	0.000000	0.000000	0.000000
S-40-E	941.180000	10.820000	0.000000	0.000000	0.000000
S-40-H	1104.110000	8.190000	0.000000	0.000000	0.000000
S-41-E	942.690000	9.810000	0.000000	0.000000	0.000000
S-41-H	1107.560000	5.640000	0.000000	0.000000	0.000000
S-42-E	944.360000	7.640000	0.000000	0.000000	0.000000
S-42-H	1107.900000	6.060000	0.000000	0.000000	0.000000
S-43-E	950.030000	5.320000	0.000000	0.000000	0.000000
S-43-H	1105.320000	9.740000	0.000000	0.000000	0.000000
S-44-H	1103.960000	9.340000	0.000000	0.000000	0.000000
S-45-E	1235.000000	6.000000	0.000000	0.000000	0.000000
S-45-H	1102.760000	8.740000	0.000000	0.000000	0.000000
S-46-E	1246.700000	6.000000	0.000000	0.000000	0.000000
S-46-H	1103.630000	8.540000	0.000000	0.000000	0.000000
S-47-E	1252.500000	5.900000	0.000000	0.000000	0.000000
S-47-H	1107.810000	7.360000	0.000000	0.000000	0.000000
S-48-E	1253.650000	6.050000	0.000000	0.000000	0.000000
S-48-H	1110.160000	9.740000	0.000000	0.000000	0.000000
S-48A-H	1107.900000	9.720000	0.000000	0.000000	0.000000
S-49-E	1254.600000	5.200000	0.000000	0.000000	0.000000
S-49-H	1115.190000	5.810000	0.000000	0.000000	0.000000
S-5-01	786.050000	4.280000	0.000000	0.000000	0.000000
S-5-02	787.550000	6.800000	0.000000	0.000000	0.000000
S-5-03	788.860000	5.040000	0.000000	0.000000	0.000000
S-5-04	780.510000	10.500000	0.000000	0.000000	0.000000
S-5-05	779.510000	10.500000	0.000000	0.000000	0.000000
S-5-06	789.810000	5.300000	0.000000	0.000000	0.000000
S-5-07	790.790000	5.900000	0.000000	0.000000	0.000000
S-5-08	780.520000	11.950000	0.000000	0.000000	0.000000
S-5-09	785.950000	9.760000	0.000000	0.000000	0.000000
S-5-09A	786.950000	9.760000	0.000000	0.000000	0.000000
S-5-E	875.490000	7.300000	0.000000	0.000000	0.000000
S-5-H	1117.490000	4.600000	0.000000	0.000000	0.000000
S-5-WWTP-W	798.060000	10.340000	0.000000	0.000000	0.000000
S-50-H	1098.270000	11.430000	0.000000	0.000000	0.000000
S-51-H	1100.000000	8.900000	0.000000	0.000000	0.000000
S-52-H	1101.260000	7.340000	0.000000	0.000000	0.000000
S-53-H	1100.900000	7.100000	0.000000	0.000000	0.000000
S-54-H	1097.350000	11.950000	0.000000	0.000000	0.000000
S-55-H	1097.930000	13.470000	0.000000	0.000000	0.000000
S-56-H	1099.290000	13.710000	0.000000	0.000000	0.000000
S-57-H	1101.880000	7.320000	0.000000	0.000000	0.000000
S-58-H	1095.590000	9.710000	0.000000	0.000000	0.000000
S-59-H	1092.830000	10.150000	0.000000	0.000000	0.000000
S-6-E	877.560000	6.700000	0.000000	0.000000	0.000000
S-6-H	1111.190000	9.150000	0.000000	0.000000	0.000000
S-60-H	1096.000000	7.890000	0.000000	0.000000	0.000000
S-61-H	1091.340000	9.800000	0.000000	0.000000	0.000000
S-62-H	1091.900000	11.050000	0.000000	0.000000	0.000000
S-64-H	1087.920000	10.030000	0.000000	0.000000	0.000000
S-65-H	1092.750000	2.250000	0.000000	0.000000	0.000000
S-66-H	1093.810000	8.990000	0.000000	0.000000	0.000000
S-67-H	1096.760000	9.840000	0.000000	0.000000	0.000000
S-68-H	1100.530000	7.340000	0.000000	0.000000	0.000000
S-69-H	1098.000000	8.900000	0.000000	0.000000	0.000000
S-7-E	877.960000	8.240000	0.000000	0.000000	0.000000
S-7-H	1117.670000	3.000000	0.000000	0.000000	0.000000
S-70-H	1099.580000	7.820000	0.000000	0.000000	0.000000
S-71-H	1101.560000	5.000000	0.000000	0.000000	0.000000
S-73-H	1082.000000	12.800000	0.000000	0.000000	0.000000
S-74-H	1080.400000	10.900000	0.000000	0.000000	0.000000
S-75-H	1081.920000	4.080000	0.000000	0.000000	0.000000
S-76-H	1082.420000	7.580000	0.000000	0.000000	0.000000
S-77-H	1084.010000	14.490000	0.000000	0.000000	0.000000
S-78-H	1085.610000	5.030000	0.000000	0.000000	0.000000
S-79-H	1085.890000	5.110000	0.000000	0.000000	0.000000
S-8-E	882.560000	4.000000	0.000000	0.000000	0.000000
S-8-H	1118.160000	3.000000	0.000000	0.000000	0.000000
S-80-H	1091.000000	10.640000	0.000000	0.000000	0.000000
S-81-H	1093.000000	7.320000	0.000000	0.000000	0.000000
S-82-H	1098.000000	6.320000	0.000000	0.000000	0.000000
S-83-H	1080.400000	12.000000	0.000000	0.000000	0.000000
S-84-H	1078.710000	7.840000	0.000000	0.000000	0.000000
S-86-H	1067.210000	9.430000	0.000000	0.000000	0.000000
S-87-H	1072.000000	7.970000	0.000000	0.000000	0.000000
S-88-H	1067.730000	9.470000	0.000000	0.000000	0.000000
S-89-H	1072.000000	6.000000	0.000000	0.000000	0.000000
S-9-H	1118.290000	3.000000	0.000000	0.000000	0.000000
S-90-H	1073.000000	7.470000	0.000000	0.000000	0.000000
S-91-H	1078.000000	6.640000	0.000000	0.000000	0.000000
S-92-H	1077.700000	22.300000	0.000000	0.000000	0.000000
S-93-H	1078.470000	7.840000	0.000000	0.000000	0.000000
S-94-H	1078.400000	10.080000	0.000000	0.000000	0.000000
S-96-H	1084.200000	13.470000	0.000000	0.000000	0.000000
S-97-H	1085.860000	15.160000	0.000000	0.000000	0.000000
S-98-H	1086.910000	13.090000	0.000000	0.000000	0.000000
S-99-H	1088.110000	15.290000	0.000000	0.000000	0.000000
S-SB39	842.440000	7.560000	0.000000	0.000000	0.000000
S-WWPTP250	1072.900000	9.100000	0.000000	0.000000	0.000000
S0000-01	849.760000	12.320000	0.000000	0.000000	0.000000
S0000-02	850.040000	11.870000	0.000000	0.000000	0.000000
S0000-03	851.580000	9.540000	0.000000	0.000000	0.000000
S0000-04	852.180000	7.580000	0.000000	0.000000	0.000000
S0000-17	867.690000	4.000000	0.000000	0.000000	0.000000
S0000-17A	868.240000	5.800000	0.000000	0.000000	0.000000
S0000-17B	868.020000	5.800000	0.000000	0.000000	0.000000
S0000-18	867.080000	4.000000	0.000000	0.000000	0.000000
S0000-19	855.640000	11.800000	0.000000	0.000000	0.000000
S0000-19A	854.640000	11.530000	0.000000	0.000000	0.000000
S0000-19B	854.340000	11.720000	0.000000	0.000000	0.000000
S0000-26	858.360000	5.330000	0.000000	0.000000	0.000000
S0000-27	856.990000	2.470000	0.000000	0.000000	0.000000
S0000-28	856.110000	5.390000	0.000000	0.000000	0.000000
S0000-29	848.590000	12.500000	0.000000	0.000000	0.000000
S0000-29A	856.110000	5.820000	0.000000	0.000000	0.000000
S0000-29B	857.720000	3.920000	0.000000	0.000000	0.000000
S0000-30	854.070000	6.580000	0.000000	0.000000	0.000000
S0000-31	847.870000	12.420000	0.000000	0.000000	0.000000
S0000-32	849.400000	13.180000	0.000000	0.000000	0.000000
S0000-33	847.160000	14.090000	0.000000	0.000000	0.000000
S0000-33A	846.520000	13.700000	0.000000	0.000000	0.000000
S0000-33B	846.690000	14.650000	0.000000	0.000000	0.000000
S0000-35	846.080000	17.360000	0.000000	0.000000	0.000000
S0000-36	850.280000	14.400000	0.000000	0.000000	0.000000
S000W-18	830.000000	6.000000	0.000000	0.000000	0.000000
S0100-01	852.960000	12.010000	0.000000	0.000000	0.000000
S0100-02	852.380000	12.130000	0.000000	0.000000	0.000000
S0100-03	852.140000	12.300000	0.000000	0.000000	0.000000
S0100-04	851.500000	12.560000	0.000000	0.000000	0.000000
S0100-05	851.290000	12.380000	0.000000	0.000000	0.000000
S0100-06	850.820000	12.610000	0.000000	0.000000	0.000000
S0100-06A	853.800000	9.580000	0.000000	0.000000	0.000000
S0100-07	856.300000	6.060000	0.000000	0.000000	0.000000
S0100-08	858.130000	2.950000	0.000000	0.000000	0.000000
S0100-09	859.050000	3.540000	0.000000	0.000000	0.000000
S0100-10	857.400000	5.590000	0.000000	0.000000	0.000000
S0100-11	856.560000	6.750000	0.000000	0.000000	0.000000
S0100-12	854.760000	9.300000	0.000000	0.000000	0.000000
S0100-13A	852.100000	11.570000	0.000000	0.000000	0.000000
S0100-13B	850.340000	13.900000	0.000000	0.000000	0.000000
S0100-14	857.470000	6.720000	0.000000	0.000000	0.000000
S0100-14A	853.730000	9.770000	0.000000	0.000000	0.000000
S0200-01	855.150000	8.950000	0.000000	0.000000	0.000000
S0200-02	854.890000	9.930000	0.000000	0.000000	0.000000
S0200-03	854.580000	10.020000	0.000000	0.000000	0.000000
S0200-04	853.810000	11.790000	0.000000	0.000000	0.000000
S0200-05	853.540000	12.190000	0.000000	0.000000	0.000000
S0200-06	853.340000	12.040000	0.000000	0.000000	0.000000
S0200-07	861.650000	2.960000	0.000000	0.000000	0.000000
S0300-01	857.910000	7.850000	0.000000	0.000000	0.000000
S0300-02	856.910000	10.900000	0.000000	0.000000	0.000000
S0300-03	856.030000	7.720000	0.000000	0.000000	0.000000
S0300-04	855.880000	8.090000	0.000000	0.000000	0.000000
S0300-05	855.420000	8.760000	0.000000	0.000000	0.000000
S0300-06	860.260000	3.750000	0.000000	0.000000	0.000000
S0300-07	862.680000	2.770000	0.000000	0.000000	0.000000
S0300-08	863.040000	3.100000	0.000000	0.000000	0.000000
S0300-09	861.480000	3.810000	0.000000	0.000000	0.000000
S0300-10	856.030000	7.400000	0.000000	0.000000	0.000000
S0300-11	856.140000	7.360000	0.000000	0.000000	0.000000
S0300-12	856.000000	7.310000	0.000000	0.000000	0.000000
S0300-15	857.000000	7.670000	0.000000	0.000000	0.000000
S0300-18	857.590000	6.440000	0.000000	0.000000	0.000000
S0300-22	856.910000	7.850000	0.000000	0.000000	0.000000
S0300-23	861.940000	4.810000	0.000000	0.000000	0.000000