[TITLE]
;;Project Title/Notes

[OPTIONS]
;;Option             Value
FLOW_UNITS           CFS
INFILTRATION         HORTON
FLOW_ROUTING         DYNWAVE
LINK_OFFSETS         DEPTH
MIN_SLOPE            0
ALLOW_PONDING        YES
SKIP_STEADY_STATE    NO

START_DATE           01/01/2001
START_TIME           00:00:00
REPORT_START_DATE    01/01/2001
REPORT_START_TIME    00:00:00
END_DATE             12/01/2008
END_TIME             06:00:00
SWEEP_START          01/01
SWEEP_END            12/31
DRY_DAYS             0
REPORT_STEP          01:00:00
WET_STEP             00:05:00
DRY_STEP             00:15:00
ROUTING_STEP         0:05:00 

INERTIAL_DAMPING     NONE
NORMAL_FLOW_LIMITED  BOTH
FORCE_MAIN_EQUATION  D-W
VARIABLE_STEP        0.75
LENGTHENING_STEP     0
MIN_SURFAREA         0
MAX_TRIALS           0
HEAD_TOLERANCE       0
SYS_FLOW_TOL         5
LAT_FLOW_TOL         5
MINIMUM_STEP         0.5
THREADS              1

[EVAPORATION]
;;Data Source    Parameters
;;-------------- ----------------
MONTHLY          0.05745 0.080643 .120655 .145133 .170065 .14    .141645 .146065 .117233 .099871 .072   .044613
DRY_ONLY         NO

[TEMPERATURE]
;;Data Element     Values     
FILE               "C:\Documents and Settings\Bailey_N\Desktop\SWMM RUN KIT-LWSE\Climate Timeseries\LauderdaleGladeAv.dat"
WINDSPEED FILE    
SNOWMELT           15 0.5 0.6 0.0 50.0 0.0
ADC IMPERVIOUS     1.0 1.0 1.0 1.0 1.0 1.0 1.0 1.0 1.0 1.0
ADC PERVIOUS       1.0 1.0 1.0 1.0 1.0 1.0 1.0 1.0 1.0 1.0

[RAINGAGES]
;;Name           Format    Interval SCF      Source    
;;-------------- --------- ------ ------ ----------
LWDD-1-L26MIL    VOLUME    24:00    1.0      FILE       "C:\Documents and Settings\Bailey_N\Desktop\SWMM RUN KIT-LWSE\Rainfall Timeseries\LWDD-1.DAT" STA01      IN   
LWDD-2-SHOP      VOLUME    24:00    1.0      FILE       "C:\Documents and Settings\Bailey_N\Desktop\SWMM RUN KIT-LWSE\Rainfall Timeseries\LWDD-2.txt" STA02      IN   
LWDD-3-ATLANTIC  VOLUME    24:00    1.0      FILE       "C:\Documents and Settings\Bailey_N\Desktop\SWMM RUN KIT-LWSE\Rainfall Timeseries\LWDD-3.txt" STA03      IN   
LWDD-4-LO28      VOLUME    24:00    1.0      FILE       "C:\Documents and Settings\Bailey_N\Desktop\SWMM RUN KIT-LWSE\Rainfall Timeseries\LWDD-4.txt" STA04      IN   
LWDD-5-LO32      VOLUME    24:00    1.0      FILE       "C:\Documents and Settings\Bailey_N\Desktop\SWMM RUN KIT-LWSE\Rainfall Timeseries\LWDD-5.txt" STA05      IN   
LWDD-6-L039      VOLUME    24:00    1.0      FILE       "C:\Documents and Settings\Bailey_N\Desktop\SWMM RUN KIT-LWSE\Rainfall Timeseries\LWDD-6.txt" STA06      IN   
LWDD-7-CS19      VOLUME    24:00    1.0      FILE       "C:\Documents and Settings\Bailey_N\Desktop\SWMM RUN KIT-LWSE\Rainfall Timeseries\LWDD-7.txt" STA07      IN   
LWDD-8-POWER     VOLUME    24:00    1.0      FILE       "C:\Documents and Settings\Bailey_N\Desktop\SWMM RUN KIT-LWSE\Rainfall Timeseries\LWDD-8.txt" STA08      IN   
LWDD-9-CS12      VOLUME    24:00    1.0      FILE       "C:\Documents and Settings\Bailey_N\Desktop\SWMM RUN KIT-LWSE\Rainfall Timeseries\LWDD-9.txt" STA09      IN   
LWDD-10-BOYN     VOLUME    24:00    1.0      FILE       "C:\Documents and Settings\Bailey_N\Desktop\SWMM RUN KIT-LWSE\Rainfall Timeseries\LWDD-10.txt" STA10      IN   
LWDD-11-LakeW    VOLUME    24:00    1.0      FILE       "C:\Documents and Settings\Bailey_N\Desktop\SWMM RUN KIT-LWSE\Rainfall Timeseries\LWDD-11.txt" STA11      IN   
LWDD-12-G-ACRES  VOLUME    24:00    1.0      FILE       "C:\Documents and Settings\Bailey_N\Desktop\SWMM RUN KIT-LWSE\Rainfall Timeseries\LWDD-12.txt" STA12      IN   
BelleGlade       VOLUME    24:00    1.0      FILE       "C:\Documents and Settings\Bailey_N\Desktop\SWMM RUN KIT-LWSE\Rainfall Timeseries\BelleGlade.txt" STABG      IN   
CoralSprings     VOLUME    24:00    1.0      FILE       "C:\Documents and Settings\Bailey_N\Desktop\SWMM RUN KIT-LWSE\Rainfall Timeseries\CoralSprings.txt" STACS      IN   
JunoBeach        VOLUME    24:00    1.0      FILE       "C:\Documents and Settings\Bailey_N\Desktop\SWMM RUN KIT-LWSE\Rainfall Timeseries\Juneau Beach.txt" STAJB      IN   
PalmBeachGardens VOLUME    24:00    1.0      FILE       "C:\Documents and Settings\Bailey_N\Desktop\SWMM RUN KIT-LWSE\Rainfall Timeseries\PalmBeachGardens.txt" STAPBG     IN   
PompanoAirpark   VOLUME    24:00    1.0      FILE       "C:\Documents and Settings\Bailey_N\Desktop\SWMM RUN KIT-LWSE\Rainfall Timeseries\PompanoBeachAirPark.txt" STAPBA     IN   
WestPalmAirport  VOLUME    24:00    1.0      FILE       "C:\Documents and Settings\Bailey_N\Desktop\SWMM RUN KIT-LWSE\Rainfall Timeseries\WestPalmBeach.txt" STAWPB     IN   
CanalPoint       VOLUME    24:00    1.0      FILE       "C:\Documents and Settings\Bailey_N\Desktop\SWMM RUN KIT-LWSE\Rainfall Timeseries\CanalPoint.txt" STACP      IN   

[SUBCATCHMENTS]
;;Name           Rain Gage        Outlet           Area     %Imperv  Width    %Slope   CurbLen  SnowPack        
;;-------------- ---------------- ---------------- -------- -------- -------- -------- -------- ----------------
WU2              LWDD-5-LO32      343              9906     25       500      0.2      0                        
WU1              LWDD-5-LO32      344              5477     25       500      0.2      0                        
WU9              LWDD-4-LO28      104              5401     25       500      0.2      0                        
EU2              WestPalmAirport  AAA0-319         4705     25       500      0.2      0                        
EU3              LWDD-5-LO32      AAA0.0-L1-W      1966     25       500      0.2      0                        
WB1              CoralSprings     Hillsboro2       10340    25       500      0.2      0                        
WB2              CoralSprings     daa9.8-12        1591     25       500      0.2      0                        
WB3              CoralSprings     daa9.9-E1-Hillsboro 3975     25       500      0.2      0                        
WB4              LWDD-6-L039      daa92-E1.5-Hillsboro 4914     25       500      0.2      0                        
WB5              LWDD-6-L039      daa94-99         5224     25       500      0.2      0                        
WB6              LWDD-1-L26MIL    daa9.6-XE1-47    226      25       500      0.2      0                        
WB7              LWDD-1-L26MIL    daa9.7-XE1-48    318      25       500      0.2      0                        
W-BOYN           LWDD-3-ATLANTIC  BAA9.75-E2-BOYNTON 683      25       500      0.2      0                        
W-C51            LWDD-5-LO32      AAA6-XE2-C51     630      25       500      0.2      0                        
W-HILS           LWDD-6-L039      22               907      25       500      0.2      0                        
W-L1             LWDD-5-LO32      AAA0.5-XE2-1     813      25       500      0.2      0                        
W-L10            LWDD-4-LO28      AAA2.0-E2-10     1142     25       500      0.2      0                        
W-L11            LWDD-4-LO28      aaa1.0-E2-11     608      25       500      0.2      0                        
W-L12            LWDD-4-LO28      AAA0.7-E2-12     571      25       500      0.2      0                        
W-L13            LWDD-4-LO28      BAA1-388         490      25       500      0.2      0                        
W-L14            LWDD-4-LO28      BAA2-221         1146     25       500      0.2      0                        
W-L16            LWDD-4-LO28      BAA4-210         1600     25       500      0.2      0                        
W-L19            LWDD-4-LO28      BAA6-E2-19       1280     25       500      0.2      0                        
W-L2             LWDD-5-LO32      AAA0-309         591      25       500      0.2      0                        
W-L20            LWDD-3-ATLANTIC  BAA7-XE2-20      675      25       500      0.2      0                        
W-L21            LWDD-3-ATLANTIC  BAA9-e2-21       732      25       500      0.2      0                        
W-L23            LWDD-3-ATLANTIC  BAA4-E2-23       591      25       500      0.2      0                        
W-L24            LWDD-3-ATLANTIC  BAA4.5-E2-24     598      25       500      0.2      0                        
W-L25            LWDD-3-ATLANTIC  BAA5             619      25       500      0.2      0                        
W-L26            LWDD-3-ATLANTIC  baa%-E2-26       639      25       500      0.2      0                        
W-L27            LWDD-3-ATLANTIC  BAA4-E2-27       661      25       500      0.2      0                        
W-L28            LWDD-2-SHOP      BAA1-E2-28       631      25       500      0.2      0                        
W-L29            LWDD-2-SHOP      CAA2-E2-29       582      25       500      0.2      0                        
W-L3             LWDD-5-LO32      AAA2-XE2-3       572      25       500      0.2      0                        
W-L30            LWDD-2-SHOP      CAA3-XE2-30      628      25       500      0.2      0                        
W-L31            LWDD-2-SHOP      caa4.5-XE2-31    650      25       500      0.2      0                        
W-L32            LWDD-2-SHOP      caa5.5-XE2-32    542      25       500      0.2      0                        
W-L33            LWDD-2-SHOP      caa6.5--XE2-33   536      25       500      0.2      0                        
W-L34            LWDD-2-SHOP      caa7.5-XE2-34    661      25       500      0.2      0                        
W-L35            LWDD-1-L26MIL    caa8.5-XE2-35    464      25       500      0.2      0                        
W-L36            LWDD-1-L26MIL    caa9.55-Xe2-36   837      25       500      0.2      0                        
W-L37            LWDD-1-L26MIL    caa9.85-E2-37    566      25       500      0.2      0                        
W-L38            LWDD-1-L26MIL    caa9.95-E2-38    569      25       500      0.2      0                        
W-L39            LWDD-1-L26MIL    caa9.7-E2-39     610      25       500      0.2      0                        
W-L4             LWDD-5-LO32      AAA3-XE2-4       461      25       500      0.2      0                        
W-L40            LWDD-1-L26MIL    caa9.5-E2-40     655      25       500      0.2      0                        
W-L41            LWDD-1-L26MIL    caa9-E2-41       673      25       500      0.2      0                        
W-L42            LWDD-1-L26MIL    CAA8-E2-42       832      25       500      0.2      0                        
W-L44            LWDD-1-L26MIL    daa5-E2-44       939      25       500      0.2      0                        
W-L45            LWDD-1-L26MIL    daa6-E2-45       627      25       500      0.2      0                        
W-L46            LWDD-1-L26MIL    daa8-E2-46       531      25       500      0.2      0                        
W-L47            LWDD-1-L26MIL    daa7-XE2-47      789      25       500      0.2      0                        
W-L48            LWDD-6-L039      daa8-E2-48       552      25       500      0.2      0                        
W-L49            LWDD-6-L039      daa8-366         631      25       500      0.2      0                        
W-L5             LWDD-5-LO32      AAA1.5-24        621      25       500      0.2      0                        
W-L6             LWDD-5-LO32      aaa2-28          557      25       500      0.2      0                        
W-L7             LWDD-5-LO32      AAA1.5-30        1162     25       500      0.2      0                        
WM-L1            LWDD-5-LO32      AAA0.0-L1-W      1917     25       500      0.2      0                        
WM-L10           LWDD-5-LO32      AAA2-XE2E-PSPC   1120     25       500      0.2      0                        
WM-L6            LWDD-5-LO32      AAA1-E2.5-6      1206     25       500      0.2      0                        
WU14             LWDD-5-LO32      105              1774     25       500      0.2      0                        
WU10             LWDD-4-LO28      132              1441     25       500      0.2      0                        
WU11             LWDD-5-LO32      AAA1-304         2556     25       500      0.2      0                        
WU12             LWDD-5-LO32      400              627      25       500      0.2      0                        
WU13             LWDD-5-LO32      107              6665     25       500      0.2      0                        
WU15             LWDD-4-LO28      112              655      25       500      0.2      0                        
WU16             LWDD-4-LO28      354              656      25       500      0.2      0                        
WU17             LWDD-4-LO28      353              677      25       500      0.2      0                        
WU18             LWDD-4-LO28      352              679      25       500      0.2      0                        
WU19             LWDD-4-LO28      356              671      25       500      0.2      0                        
WU20             LWDD-4-LO28      357              110      25       500      0.2      0                        
WU21             LWDD-4-LO28      52               265      25       500      0.2      0                        
WU22             LWDD-4-LO28      53               421      25       500      0.2      0                        
WU23             LWDD-4-LO28      355              283      25       500      0.2      0                        
WU24             LWDD-4-LO28      355              270      25       500      0.2      0                        
WU25             LWDD-4-LO28      58               405      25       500      0.2      0                        
WU26             LWDD-4-LO28      151              1316     25       500      0.2      0                        
WU27             LWDD-4-LO28      AAA0.8-XE1-12    970      25       500      0.2      0                        
WU28             LWDD-5-LO32      AAA1.3-X411      1371     25       500      0.2      0                        
WU29             LWDD-5-LO32      AAA1.1-XE1-10    1265     25       500      0.2      0                        
WU3              LWDD-5-LO32      331              9667     25       500      0.2      0                        
WU4              LWDD-5-LO32      XE1-1            1184     25       500      0.2      0                        
WU5              LWDD-5-LO32      XE1-1            2716     25       500      0.2      0                        
WW13             LWDD-4-LO28      BAA1-XE1-13      1332     25       500      0.2      0                        
WW14             LWDD-4-LO28      387              2777     25       500      0.2      0                        
WW16             LWDD-4-LO28      214              2926     25       500      0.2      0                        
WW19             LWDD-4-LO28      394              2073     25       500      0.2      0                        
WW20             LWDD-3-ATLANTIC  BAA9-XE1         862      25       500      0.2      0                        
WW21             LWDD-3-ATLANTIC  398              755      25       500      0.2      0                        
WW22             LWDD-3-ATLANTIC  191              595      25       500      0.2      0                        
WW23             LWDD-3-ATLANTIC  baa7-XE1-23      469      25       500      0.2      0                        
WW24             LWDD-3-ATLANTIC  BAA5-XE1-24      428      25       500      0.2      0                        
WW25             LWDD-3-ATLANTIC  BAA5-E1-25       403      25       500      0.2      0                        
WW26             LWDD-3-ATLANTIC  BAA4-XE1-26      362      25       500      0.2      0                        
WW27             LWDD-3-ATLANTIC  BAA3-XE1-27      367      25       500      0.2      0                        
WW28             LWDD-2-SHOP      BAA2-XE1-28      353      25       500      0.2      0                        
WW29             LWDD-2-SHOP      CAA1-XE1-29      343      25       500      0.2      0                        
WW30             LWDD-2-SHOP      CAA1-11          360      25       500      0.2      0                        
WW31             LWDD-2-SHOP      CAA4-X142        395      25       500      0.2      0                        
WW32             LWDD-2-SHOP      caa5-X139        335      25       500      0.2      0                        
WW33             LWDD-2-SHOP      caa6-X131        393      25       500      0.2      0                        
WW34             LWDD-2-SHOP      caa7-X125        447      25       500      0.2      0                        
WW35             LWDD-1-L26MIL    caa8-X124        475      25       500      0.2      0                        
WW36             LWDD-1-L26MIL    caa9.5-8         591      25       500      0.2      0                        
WW37             LWDD-1-L26MIL    caa9.5-8         513      25       500      0.2      0                        
WW38             LWDD-1-L26MIL    363              522      25       500      0.2      0                        
WW39             LWDD-1-L26MIL    363              581      25       500      0.2      0                        
WW40             LWDD-1-L26MIL    363              797      25       500      0.2      0                        
WW41             LWDD-1-L26MIL    caa7-429         941      25       500      0.2      0                        
WW42             LWDD-1-L26MIL    CAA6-70          950      25       500      0.2      0                        
WW44             LWDD-1-L26MIL    348              1222     25       500      0.2      0                        
WW45             LWDD-1-L26MIL    daa9-e1-45       827      25       500      0.2      0                        
WW46             LWDD-1-L26MIL    daa9.5-E1-46     665      25       500      0.2      0                        
WW50             CoralSprings     5                3398     25       500      0.2      0                        
X-BOYN           LWDD-3-ATLANTIC  BAA91-e3-boyNTon 427      25       500      0.2      0                        
X-C51            LWDD-5-LO32      AAA7-XE3-C51     912      25       500      0.2      0                        
X-HILS           LWDD-6-L039      daa95-E3-Hillsboro 1284     25       500      0.2      0                        
X-L1             LWDD-5-LO32      AAA0.0-E3.3-1    1028     25       500      0.2      0                        
X-L10            LWDD-5-LO32      AAA1.5-XE2E-10   884      25       500      0.2      0                        
X-L11            LWDD-4-LO28      AAA1-XE2E-11     832      25       500      0.2      0                        
X-L12            LWDD-4-LO28      AAA0.5-413       813      25       500      0.2      0                        
X-L13            LWDD-4-LO28      BAA0-237         926      25       500      0.2      0                        
X-L14            LWDD-4-LO28      BAA2-E2E-14      848      25       500      0.2      0                        
X-L15            LWDD-4-LO28      BAA2-223         873      25       500      0.2      0                        
X-L16            LWDD-4-LO28      BAA9-E3-16       1294     25       500      0.2      0                        
X-L18            LWDD-4-LO28      BAA9.2-E3-18     1310     25       500      0.2      0                        
X-L19            LWDD-4-LO28      BAA7-347         852      25       500      0.2      0                        
X-L2             LWDD-5-LO32      aaa0.0-5-19      809      25       500      0.2      0                        
X-L20            LWDD-3-ATLANTIC  BAA9.5-E3-20     931      25       500      0.2      0                        
X-L21            LWDD-3-ATLANTIC  baa9.6-E3-21     791      25       500      0.2      0                        
X-L22            LWDD-3-ATLANTIC  BAA9.9-391       620      25       500      0.2      0                        
X-L23            LWDD-3-ATLANTIC  BAA9.6-E3-23     641      25       500      0.2      0                        
X-L24            LWDD-3-ATLANTIC  BAA7-E3-24       836      25       500      0.2      0                        
X-L25            LWDD-3-ATLANTIC  BAA5-E3-25       849      25       500      0.2      0                        
X-L26            LWDD-3-ATLANTIC  BAA5-E3-26       813      25       500      0.2      0                        
X-L27            LWDD-3-ATLANTIC  BAA5-E3-27       806      25       500      0.2      0                        
X-L28            LWDD-2-SHOP      BAA5-XE3-28      840      25       500      0.2      0                        
X-L29            LWDD-2-SHOP      BAA4-E3-29       751      25       500      0.2      0                        
X-L3             LWDD-5-LO32      AAA1.5XE3-3      894      25       500      0.2      0                        
X-L30            LWDD-2-SHOP      Xe3-30           832      25       500      0.2      0                        
X-L31            LWDD-8-POWER     X375             812      25       500      0.2      0                        
X-L32            LWDD-2-SHOP      E3-32            850      25       500      0.2      0                        
X-L33            LWDD-2-SHOP      E3-33            856      25       500      0.2      0                        
X-L34            LWDD-2-SHOP      E3-34            827      25       500      0.2      0                        
X-L35            LWDD-1-L26MIL    E3-35            784      25       500      0.2      0                        
X-L36            LWDD-1-L26MIL    115              880      25       500      0.2      0                        
X-L37            LWDD-1-L26MIL    E3-37            827      25       500      0.2      0                        
X-L38            LWDD-1-L26MIL    caa93-E3-38      825      25       500      0.2      0                        
X-L39            LWDD-1-L26MIL    caa92.7-E3-39    830      25       500      0.2      0                        
X-L4             LWDD-5-LO32      AAA4-E3-4        861      25       500      0.2      0                        
X-L40            LWDD-1-L26MIL    caa92.6-E3-40    831      25       500      0.2      0                        
X-L41            LWDD-1-L26MIL    caa92.5-E3-41    786      25       500      0.2      0                        
X-L42            LWDD-1-L26MIL    caa92-E3-42      855      25       500      0.2      0                        
X-L43            LWDD-1-L26MIL    e3-43            840      25       500      0.2      0                        
X-L44            LWDD-6-L039      E2.7-44          758      25       500      0.2      0                        
X-L45            LWDD-6-L039      E2.7-45          838      25       500      0.2      0                        
X-L46            LWDD-6-L039      E2.7-46.5        899      25       500      0.2      0                        
X-L47            LWDD-6-L039      E2E-47           813      25       500      0.2      0                        
X-L48            LWDD-6-L039      daa91-XE3-48     826      25       500      0.2      0                        
X-L49            LWDD-6-L039      daa92-E3-49      908      25       500      0.2      0                        
X-L5             LWDD-5-LO32      AAA4-E3-5        974      25       500      0.2      0                        
X-L50            LWDD-6-L039      daa93-E3-50      698      25       500      0.2      0                        
X-L6             LWDD-5-LO32      AAA3-XE3-6       347      25       500      0.2      0                        
X-L7             LWDD-5-LO32      AAA2-XE3-7       420      25       500      0.2      0                        
X-L8             LWDD-5-LO32      AAA1-XE3-8       397      25       500      0.2      0                        
X-L9             LWDD-5-LO32      AAA0.9-XE3-9     405      25       500      0.2      0                        
XM-L43           LWDD-7-CS19      X61              278      25       500      0.2      0                        
XM-L45           LWDD-6-L039      51               281      25       500      0.2      0                        
XM-L46           LWDD-6-L039      66               203      25       500      0.2      0                        
XM-L47           LWDD-6-L039      daa94-33         225      25       500      0.2      0                        
XM-L50           LWDD-6-L039      daa910369        5        25       500      0.2      0                        
Y-BOYN           LWDD-9-CS12      baa93            1445     25       500      0.2      0                        
Y-C51            WestPalmAirport  AAA8-E4-C51      5        25       500      0.2      0                        
Y-HILS           LWDD-6-L039      daa97-E4-Hillsboro 1132     25       500      0.2      0                        
Y-L1             WestPalmAirport  AAA0-319         988      25       500      0.2      0                        
Y-L10            LWDD-10-BOYN     AAA91-XE4-10     1096     25       500      0.2      0                        
Y-L11            LWDD-10-BOYN     AAA9-XE4-11      986      25       500      0.2      0                        
Y-L12            LWDD-10-BOYN     AAA8-XE4-12      1002     25       500      0.2      0                        
Y-L13            LWDD-10-BOYN     BAA2-XE4-13      932      25       500      0.2      0                        
Y-L15            LWDD-10-BOYN     BAA3-E3.5-14     2170     25       500      0.2      0                        
Y-L16            LWDD-10-BOYN     BAA8-E4-16       1104     25       500      0.2      0                        
Y-L17            LWDD-10-BOYN     BAA8-E4-17       988      25       500      0.2      0                        
Y-L18            LWDD-10-BOYN     BAA9.3-E4-18     950      25       500      0.2      0                        
Y-L19            LWDD-9-CS12      BAA9.5-E4-19     933      25       500      0.2      0                        
Y-L2             WestPalmAirport  AAA0.5-X3,9-2    995      25       500      0.2      0                        
Y-L20            LWDD-9-CS12      BAA91-XE4-20     919      25       500      0.2      0                        
Y-L21            LWDD-9-CS12      BAA92-Xe4-21     966      25       500      0.2      0                        
Y-L24            LWDD-9-CS12      E4-24            1343     25       500      0.2      0                        
Y-L25            LWDD-9-CS12      E4-25            832      25       500      0.2      0                        
Y-L26            LWDD-9-CS12      E4-26            1152     25       500      0.2      0                        
Y-L27            LWDD-8-POWER     XE4-27           1027     25       500      0.2      0                        
Y-L28            LWDD-8-POWER     XE4-28           1243     25       500      0.2      0                        
Y-L29            LWDD-11-LakeW    E3.7-29          460      25       500      0.2      0                        
Y-L3             WestPalmAirport  AAA0.5-X3,9-2    717      25       500      0.2      0                        
Y-L30            LWDD-8-POWER     147              837      25       500      0.2      0                        
Y-L32            LWDD-8-POWER     XE4-32           1329     25       500      0.2      0                        
Y-L33            LWDD-8-POWER     E4-33            712      25       500      0.2      0                        
Y-L34            LWDD-8-POWER     x119             708      25       500      0.2      0                        
Y-L35            LWDD-7-CS19      x119             704      25       500      0.2      0                        
Y-L36            LWDD-7-CS19      x117             635      25       500      0.2      0                        
Y-L37            LWDD-7-CS19      x117             625      25       500      0.2      0                        
Y-L38            LWDD-7-CS19      caa96-E4-38      935      25       500      0.2      0                        
Y-L4             WestPalmAirport  AAA0.5-X3,9-2    754      25       500      0.2      0                        
Y-L40            LWDD-7-CS19      caa96-E4-40      902      25       500      0.2      0                        
Y-L41            LWDD-7-CS19      caa94-E4-41      661      25       500      0.2      0                        
Y-L42            LWDD-7-CS19      caa93-E4-42      581      25       500      0.2      0                        
Y-L43            LWDD-7-CS19      caa93-E4-42      1197     25       500      0.2      0                        
Y-L48            LWDD-6-L039      daa95-E4-48      569      25       500      0.2      0                        
Y-L49            LWDD-6-L039      daa95-26         450      25       500      0.2      0                        
Y-L5             WestPalmAirport  AAA9-E4-5        1942     25       500      0.2      0                        
Y-L50            LWDD-6-L039      daa96-E4-49-50   430      25       500      0.2      0                        
Y-L6             WestPalmAirport  AAA91-276E4-6    1056     25       500      0.2      0                        
Y-L7             WestPalmAirport  AAA92-E4-7       1087     25       500      0.2      0                        
Y-L8             WestPalmAirport  412E3.9-8        1136     25       500      0.2      0                        
Y-L9             LWDD-10-BOYN     AAA92-E4-9       1122     25       500      0.2      0                        
XM-L29           LWDD-8-POWER     147              527      25       500      0.2      0                        
YM-L32           LWDD-8-POWER     377              386      25       500      0.2      0                        
Z1               WestPalmAirport  AAA9-E4-5        990      25       500      0.2      0                        
Z10              LWDD-6-L039      caa99-92         2496     25       500      0.2      0                        
Z11              LWDD-6-L039      daa96-E3.8-Hillsboro 7515     25       500      0.2      0                        