[TITLE]
;;Project Title/Notes

[OPTIONS]
;;Option             Value
FLOW_UNITS           MGD
INFILTRATION         HORTON
FLOW_ROUTING         DYNWAVE
LINK_OFFSETS         DEPTH
MIN_SLOPE            0
ALLOW_PONDING        NO
SKIP_STEADY_STATE    NO

START_DATE           01/01/2002
START_TIME           00:00:00
REPORT_START_DATE    01/01/2002
REPORT_START_TIME    00:00:00
END_DATE             01/01/2002
END_TIME             00:00:00
SWEEP_START          01/01
SWEEP_END            12/31
DRY_DAYS             5.000000
REPORT_STEP          00:05:00
WET_STEP             01:00:00
DRY_STEP             23:00:00
ROUTING_STEP         0:05:00 

INERTIAL_DAMPING     NONE
NORMAL_FLOW_LIMITED  BOTH
FORCE_MAIN_EQUATION  H-W
VARIABLE_STEP        0.75
LENGTHENING_STEP     0
MIN_SURFAREA         0
MAX_TRIALS           0
HEAD_TOLERANCE       0
SYS_FLOW_TOL         5
LAT_FLOW_TOL         5
MINIMUM_STEP         0.5
THREADS              1

[EVAPORATION]
;;Data Source    Parameters
;;-------------- ----------------
CONSTANT         0.0
DRY_ONLY         NO

[RAINGAGES]
;;Name           Format    Interval SCF      Source    
;;-------------- --------- ------ ------ ----------
RG_SEWER_CNTY_RAIN INTENSITY 0.016667 1.000000 TIMESERIES CNTY_RAIN       
UH_SEWER_FM1     INTENSITY 1.000000 1.000000 FILE       "-"              -          IN   
UH_SEWER_FM10    INTENSITY 1.000000 1.000000 FILE       "-"              -          IN   
UH_SEWER_FM11    INTENSITY 1.000000 1.000000 FILE       "-"              -          IN   
UH_SEWER_FM12    INTENSITY 1.000000 1.000000 FILE       "-"              -          IN   
UH_SEWER_FM13    INTENSITY 1.000000 1.000000 FILE       "-"              -          IN   
UH_SEWER_FM14    INTENSITY 1.000000 1.000000 FILE       "-"              -          IN   
UH_SEWER_FM2     INTENSITY 1.000000 1.000000 FILE       "-"              -          IN   
UH_SEWER_FM3     INTENSITY 1.000000 1.000000 FILE       "-"              -          IN   
UH_SEWER_FM5     INTENSITY 1.000000 1.000000 FILE       "-"              -          IN   
UH_SEWER_FM6     INTENSITY 1.000000 1.000000 FILE       "-"              -          IN   
UH_SEWER_FM7     INTENSITY 1.000000 1.000000 FILE       "-"              -          IN   
UH_SEWER_FM8     INTENSITY 1.000000 1.000000 FILE       "-"              -          IN   
UH_SEWER_FM9     INTENSITY 1.000000 1.000000 FILE       "-"              -          IN   

[SUBCATCHMENTS]
;;Name           Rain Gage        Outlet           Area     %Imperv  Width    %Slope   CurbLen  SnowPack        
;;-------------- ---------------- ---------------- -------- -------- -------- -------- -------- ----------------
SC_SEWER_110Y18  RG_SEWER_CNTY_RAIN 110Y18           1.841013 0.000000 501.843095 0.500000 0.000000                 
SC_SEWER_111X18  RG_SEWER_CNTY_RAIN 111X18           0.544136 0.000000 272.756856 0.000000 0.000000                 
SC_SEWER_115X18  RG_SEWER_CNTY_RAIN 115X18           0.227279 0.000000 176.475159 0.100000 0.000000                 
SC_SEWER_117Y18  RG_SEWER_CNTY_RAIN 117Y18           3.391968 0.000000 681.208461 1.100000 0.000000                 
SC_SEWER_204Z17  RG_SEWER_CNTY_RAIN 204Z17           5.074820 0.000000 833.242238 0.100000 0.000000                 
SC_SEWER_208Y18  RG_SEWER_CNTY_RAIN 208Y18           5.713738 0.000000 884.157805 0.700000 0.000000                 
SC_SEWER_208Z17  RG_SEWER_CNTY_RAIN 208Z17           14.665995 0.000000 1416.834668 0.400000 0.000000                 
SC_SEWER_210Y18  RG_SEWER_CNTY_RAIN 210Y18           0.657450 0.000000 299.880009 0.800000 0.000000                 
SC_SEWER_211Z17  RG_SEWER_CNTY_RAIN 211Z17           10.803561 0.000000 1216.028716 0.000000 0.000000                 
SC_SEWER_217Y18  RG_SEWER_CNTY_RAIN 217Y18           2.182509 0.000000 546.379939 1.400000 0.000000                 
SC_SEWER_304Y17  RG_SEWER_CNTY_RAIN 304Y17           6.754437 0.000000 961.513964 3.800000 0.000000                 
SC_SEWER_306Z17  RG_SEWER_CNTY_RAIN 306Z17           5.283790 0.000000 408.740696 0.700000 0.000000                 
SC_SEWER_307Z18  RG_SEWER_CNTY_RAIN 307Z18           3.726392 0.000000 714.129594 0.300000 0.000000                 
SC_SEWER_308Y17  RG_SEWER_CNTY_RAIN 308Y17           1.823423 0.000000 480.509937 0.700000 0.000000                 
SC_SEWER_309X17  RG_SEWER_CNTY_RAIN 309X17           9.615570 0.000000 1147.231499 1.900000 0.000000                 
SC_SEWER_309Z17  RG_SEWER_CNTY_RAIN 309Z17           4.205929 0.000000 758.634614 0.200000 0.000000                 
SC_SEWER_312X18  RG_SEWER_CNTY_RAIN 312X18           0.239404 0.000000 181.049637 0.200000 0.000000                 
SC_SEWER_320X17  RG_SEWER_CNTY_RAIN 320X17           2.766923 0.000000 615.248380 0.200000 0.000000                 
SC_SEWER_325X17  RG_SEWER_CNTY_RAIN 325X17           2.621166 0.000000 599.045014 1.100000 0.000000                 
SC_SEWER_333X17  RG_SEWER_CNTY_RAIN 333X17           2.313484 0.000000 562.676402 1.100000 0.000000                 
SC_SEWER_401W18  RG_SEWER_CNTY_RAIN 401W18           0.889010 0.000000 348.876338 0.000000 0.000000                 
SC_SEWER_402X18  RG_SEWER_CNTY_RAIN 402X18           1.127703 0.000000 428.271458 0.700000 0.000000                 
SC_SEWER_403X18  RG_SEWER_CNTY_RAIN 403X18           0.856672 0.000000 533.857388 0.200000 0.000000                 
SC_SEWER_404X18  RG_SEWER_CNTY_RAIN 404X18           1.018659 0.000000 373.508452 0.200000 0.000000                 
SC_SEWER_405Y18  RG_SEWER_CNTY_RAIN 405Y18           3.399077 0.000000 682.007337 0.900000 0.000000                 
SC_SEWER_409Y18  RG_SEWER_CNTY_RAIN 409Y18           6.431849 0.000000 938.283136 0.200000 0.000000                 
SC_SEWER_410X18  RG_SEWER_CNTY_RAIN 410X18           2.553581 0.000000 591.041485 0.100000 0.000000                 
SC_SEWER_413X19  RG_SEWER_CNTY_RAIN 413X19           7.283224 0.000000 1008.446406 0.500000 0.000000                 
SC_SEWER_414X19  RG_SEWER_CNTY_RAIN 414X19           7.031612 0.000000 981.092288 0.500000 0.000000                 
SC_SEWER_502X19  RG_SEWER_CNTY_RAIN 502X19           2.203770 0.000000 549.177428 0.100000 0.000000                 
SC_SEWER_503Y18  RG_SEWER_CNTY_RAIN 503Y18           1.102049 0.000000 388.392081 0.600000 0.000000                 
SC_SEWER_505Y18  RG_SEWER_CNTY_RAIN 505Y18           9.688186 0.000000 1151.479903 0.200000 0.000000                 
SC_SEWER_506W18  RG_SEWER_CNTY_RAIN 506W18           2.544465 0.000000 590.185895 0.100000 0.000000                 
SC_SEWER_506Y18  RG_SEWER_CNTY_RAIN 506Y18           0.913988 0.000000 353.581677 0.200000 0.000000                 
SC_SEWER_507Y18  RG_SEWER_CNTY_RAIN 507Y18           3.380880 0.000000 1026.995226 0.200000 0.000000                 
SC_SEWER_509W18  RG_SEWER_CNTY_RAIN 509W18           0.264102 0.000000 190.153092 1.000000 0.000000                 
SC_SEWER_510X19  RG_SEWER_CNTY_RAIN 510X19           5.853454 0.000000 962.175351 1.400000 0.000000                 
SC_SEWER_517X18  RG_SEWER_CNTY_RAIN 517X18           4.458294 0.000000 781.187876 0.800000 0.000000                 
SC_SEWER_518X18  RG_SEWER_CNTY_RAIN 518X18           4.467427 0.000000 781.844600 0.500000 0.000000                 
SC_SEWER_520X18  RG_SEWER_CNTY_RAIN 520X18           1.148465 0.000000 396.411670 0.300000 0.000000                 
SC_SEWER_520X19  RG_SEWER_CNTY_RAIN 520X19           1.534214 0.000000 458.055893 0.600000 0.000000                 
SC_SEWER_601X18  RG_SEWER_CNTY_RAIN 601X18           2.404000 0.000000 573.484337 0.700000 0.000000                 
SC_SEWER_602X18  RG_SEWER_CNTY_RAIN 602X18           9.530000 0.000000 5483.841480 0.800000 0.000000                 
SC_SEWER_603X19  RG_SEWER_CNTY_RAIN 603X19           2.705899 0.000000 638.856049 0.600000 0.000000                 
SC_SEWER_604W18  RG_SEWER_CNTY_RAIN 604W18           7.791595 0.000000 1032.558156 0.600000 0.000000                 
SC_SEWER_605Y18  RG_SEWER_CNTY_RAIN 605Y18           4.201687 0.000000 758.183472 0.500000 0.000000                 
SC_SEWER_607Y18  RG_SEWER_CNTY_RAIN 607Y18           0.692892 0.000000 307.983529 3.000000 0.000000                 
SC_SEWER_608X18  RG_SEWER_CNTY_RAIN 608X18           2.977871 0.000000 645.353533 0.700000 0.000000                 
SC_SEWER_608Y17  RG_SEWER_CNTY_RAIN 608Y17           8.361621 0.000000 1069.698177 1.500000 0.000000                 
SC_SEWER_611X17  RG_SEWER_CNTY_RAIN 611X17           0.614363 0.000000 289.942022 0.100000 0.000000                 
SC_SEWER_613X17  RG_SEWER_CNTY_RAIN 613X17           4.309808 0.000000 767.833301 0.400000 0.000000                 
SC_SEWER_613Y17  RG_SEWER_CNTY_RAIN 613Y17           19.372115 0.000000 1628.109856 0.200000 0.000000                 
SC_SEWER_615X18  RG_SEWER_CNTY_RAIN 615X18           9.975797 0.000000 1168.447746 1.000000 0.000000                 
SC_SEWER_618X17  RG_SEWER_CNTY_RAIN 618X17           0.848186 0.000000 369.100610 0.200000 0.000000                 
SC_SEWER_622X17  RG_SEWER_CNTY_RAIN 622X17           6.767456 0.000000 962.423659 1.100000 0.000000                 
SC_SEWER_703W18  RG_SEWER_CNTY_RAIN 703W18           4.180202 0.000000 756.186118 0.400000 0.000000                 
SC_SEWER_705X18  RG_SEWER_CNTY_RAIN 705X18           1.178938 0.000000 291.456070 0.800000 0.000000                 
SC_SEWER_706W18  RG_SEWER_CNTY_RAIN 706W18           1.221370 0.000000 408.938456 0.000000 0.000000                 
SC_SEWER_707X18  RG_SEWER_CNTY_RAIN 707X18           8.758653 0.000000 1094.768770 0.400000 0.000000                 
SC_SEWER_709X18  RG_SEWER_CNTY_RAIN 709X18           1.829776 0.000000 558.158483 0.200000 0.000000                 
SC_SEWER_713W18  RG_SEWER_CNTY_RAIN 713W18           8.514418 0.000000 1100.884685 0.300000 0.000000                 
SC_SEWER_805Y17  RG_SEWER_CNTY_RAIN 805Y17           2.945746 0.000000 634.916867 0.300000 0.000000                 
SC_SEWER_806Y17  RG_SEWER_CNTY_RAIN 806Y17           1.407049 0.000000 438.733287 0.100000 0.000000                 
SC_SEWER_807Y17  RG_SEWER_CNTY_RAIN 807Y17           1.339527 0.000000 428.098246 0.300000 0.000000                 
SC_SEWER_810X18  RG_SEWER_CNTY_RAIN 810X18           16.076492 0.000000 1483.355209 1.700000 0.000000                 
SC_SEWER_901X17  RG_SEWER_CNTY_RAIN 901X17           21.000603 0.000000 1695.304446 1.200000 0.000000                 
SC_SEWER_903W17  RG_SEWER_CNTY_RAIN 903W17           10.656286 0.000000 1207.564544 1.200000 0.000000                 
SC_SEWER_904W17  RG_SEWER_CNTY_RAIN 904W17           14.222702 0.000000 1395.048162 0.100000 0.000000                 
SC_SEWER_904X18  RG_SEWER_CNTY_RAIN 904X18           1.702973 0.000000 482.638244 1.200000 0.000000                 
SC_SEWER_905X17  RG_SEWER_CNTY_RAIN 905X17           1.007886 0.000000 371.434187 0.300000 0.000000                 
SC_SEWER_905X18  RG_SEWER_CNTY_RAIN 905X18           0.614146 0.000000 289.839452 2.100000 0.000000                 
SC_SEWER_907X17  RG_SEWER_CNTY_RAIN 907X17           15.401906 0.000000 1451.865460 0.500000 0.000000                 
SC_SEWER_908X17  RG_SEWER_CNTY_RAIN 908X17           1.125771 0.000000 449.895438 0.100000 0.000000                 
SC_SEWER_908Y17  RG_SEWER_CNTY_RAIN 908Y17           9.760752 0.000000 1258.296457 0.500000 0.000000                 
SC_SEWER_909X17  RG_SEWER_CNTY_RAIN 909X17           23.996899 0.000000 1812.248500 0.700000 0.000000                 
SC_SEWER_909Y18  RG_SEWER_CNTY_RAIN 909Y18           2.778702 0.000000 616.608628 0.100000 0.000000                 
SC_SEWER_912Y17  RG_SEWER_CNTY_RAIN 912Y17           2.365985 0.000000 569.090613 0.300000 0.000000                 
SC_SEWER_914X18  RG_SEWER_CNTY_RAIN 914X18           3.135582 0.000000 655.088523 1.100000 0.000000                 

[SUBAREAS]
;;Subcatchment   N-Imperv   N-Perv     S-Imperv   S-Perv     PctZero    RouteTo    PctRouted 
;;-------------- ---------- ---------- ---------- ---------- ---------- ---------- ----------
SC_SEWER_110Y18  0.001000   0.100000   0.000000   0.000000   25.000000  OUTLET    
SC_SEWER_111X18  0.001000   0.100000   0.000000   0.000000   25.000000  OUTLET    
SC_SEWER_115X18  0.001000   0.100000   0.000000   0.000000   25.000000  OUTLET    
SC_SEWER_117Y18  0.001000   0.100000   0.000000   0.000000   25.000000  OUTLET    
SC_SEWER_204Z17  0.001000   0.100000   0.000000   0.000000   25.000000  OUTLET    
SC_SEWER_208Y18  0.001000   0.100000   0.000000   0.000000   25.000000  OUTLET    
SC_SEWER_208Z17  0.001000   0.100000   0.000000   0.000000   25.000000  OUTLET    
SC_SEWER_210Y18  0.001000   0.100000   0.000000   0.000000   25.000000  OUTLET    
SC_SEWER_211Z17  0.001000   0.100000   0.000000   0.000000   25.000000  OUTLET    
SC_SEWER_217Y18  0.001000   0.100000   0.000000   0.000000   25.000000  OUTLET    
SC_SEWER_304Y17  0.001000   0.100000   0.000000   0.000000   25.000000  OUTLET    
SC_SEWER_306Z17  0.001000   0.100000   0.000000   0.000000   25.000000  OUTLET    
SC_SEWER_307Z18  0.001000   0.100000   0.000000   0.000000   25.000000  OUTLET    
SC_SEWER_308Y17  0.001000   0.100000   0.000000   0.000000   25.000000  OUTLET    
SC_SEWER_309X17  0.001000   0.100000   0.000000   0.000000   25.000000  OUTLET    
SC_SEWER_309Z17  0.001000   0.100000   0.000000   0.000000   25.000000  OUTLET    
SC_SEWER_312X18  0.001000   0.100000   0.000000   0.000000   25.000000  OUTLET    
SC_SEWER_320X17  0.001000   0.100000   0.000000   0.000000   25.000000  OUTLET    
SC_SEWER_325X17  0.001000   0.100000   0.000000   0.000000   25.000000  OUTLET    
SC_SEWER_333X17  0.001000   0.100000   0.000000   0.000000   25.000000  OUTLET    
SC_SEWER_401W18  0.001000   0.100000   0.000000   0.000000   25.000000  OUTLET    
SC_SEWER_402X18  0.001000   0.100000   0.000000   0.000000   25.000000  OUTLET    
SC_SEWER_403X18  0.001000   0.100000   0.000000   0.000000   25.000000  OUTLET    
SC_SEWER_404X18  0.001000   0.100000   0.000000   0.000000   25.000000  OUTLET    
SC_SEWER_405Y18  0.001000   0.100000   0.000000   0.000000   25.000000  OUTLET    
SC_SEWER_409Y18  0.001000   0.100000   0.000000   0.000000   25.000000  OUTLET    
SC_SEWER_410X18  0.001000   0.100000   0.000000   0.000000   25.000000  OUTLET    
SC_SEWER_413X19  0.001000   0.100000   0.000000   0.000000   25.000000  OUTLET    
SC_SEWER_414X19  0.001000   0.100000   0.000000   0.000000   25.000000  OUTLET    
SC_SEWER_502X19  0.001000   0.100000   0.000000   0.000000   25.000000  OUTLET    
SC_SEWER_503Y18  0.001000   0.100000   0.000000   0.000000   25.000000  OUTLET    
SC_SEWER_505Y18  0.001000   0.100000   0.000000   0.000000   25.000000  OUTLET    
SC_SEWER_506W18  0.001000   0.100000   0.000000   0.000000   25.000000  OUTLET    
SC_SEWER_506Y18  0.001000   0.100000   0.000000   0.000000   25.000000  OUTLET    
SC_SEWER_507Y18  0.001000   0.100000   0.000000   0.000000   25.000000  OUTLET    
SC_SEWER_509W18  0.001000   0.100000   0.000000   0.000000   25.000000  OUTLET    
SC_SEWER_510X19  0.001000   0.100000   0.000000   0.000000   25.000000  OUTLET    
SC_SEWER_517X18  0.001000   0.100000   0.000000   0.000000   25.000000  OUTLET    
SC_SEWER_518X18  0.001000   0.100000   0.000000   0.000000   25.000000  OUTLET    
SC_SEWER_520X18  0.001000   0.100000   0.000000   0.000000   25.000000  OUTLET    
SC_SEWER_520X19  0.001000   0.100000   0.000000   0.000000   25.000000  OUTLET    
SC_SEWER_601X18  0.001000   0.100000   0.000000   0.000000   25.000000  OUTLET    
SC_SEWER_602X18  0.001000   0.100000   0.000000   0.000000   25.000000  OUTLET    
SC_SEWER_603X19  0.001000   0.100000   0.000000   0.000000   25.000000  OUTLET    
SC_SEWER_604W18  0.001000   0.100000   0.000000   0.000000   25.000000  OUTLET    
SC_SEWER_605Y18  0.001000   0.100000   0.000000   0.000000   25.000000  OUTLET    
SC_SEWER_607Y18  0.001000   0.100000   0.000000   0.000000   25.000000  OUTLET    
SC_SEWER_608X18  0.001000   0.100000   0.000000   0.000000   25.000000  OUTLET    
SC_SEWER_608Y17  0.001000   0.100000   0.000000   0.000000   25.000000  OUTLET    
SC_SEWER_611X17  0.001000   0.100000   0.000000   0.000000   25.000000  OUTLET    
SC_SEWER_613X17  0.001000   0.100000   0.000000   0.000000   25.000000  OUTLET    
SC_SEWER_613Y17  0.001000   0.100000   0.000000   0.000000   25.000000  OUTLET    
SC_SEWER_615X18  0.001000   0.100000   0.000000   0.000000   25.000000  OUTLET    
SC_SEWER_618X17  0.001000   0.100000   0.000000   0.000000   25.000000  OUTLET    
SC_SEWER_622X17  0.001000   0.100000   0.000000   0.000000   25.000000  OUTLET    
SC_SEWER_703W18  0.001000   0.100000   0.000000   0.000000   25.000000  OUTLET    
SC_SEWER_705X18  0.001000   0.100000   0.000000   0.000000   25.000000  OUTLET    
SC_SEWER_706W18  0.001000   0.100000   0.000000   0.000000   25.000000  OUTLET    
SC_SEWER_707X18  0.001000   0.100000   0.000000   0.000000   25.000000  OUTLET    
SC_SEWER_709X18  0.001000   0.100000   0.000000   0.000000   25.000000  OUTLET    
SC_SEWER_713W18  0.001000   0.100000   0.000000   0.000000   25.000000  OUTLET    
SC_SEWER_805Y17  0.001000   0.100000   0.000000   0.000000   25.000000  OUTLET    
SC_SEWER_806Y17  0.001000   0.100000   0.000000   0.000000   25.000000  OUTLET    
SC_SEWER_807Y17  0.001000   0.100000   0.000000   0.000000   25.000000  OUTLET    
SC_SEWER_810X18  0.001000   0.100000   0.000000   0.000000   25.000000  OUTLET    
SC_SEWER_901X17  0.001000   0.100000   0.000000   0.000000   25.000000  OUTLET    
SC_SEWER_903W17  0.001000   0.100000   0.000000   0.000000   25.000000  OUTLET    
SC_SEWER_904W17  0.001000   0.100000   0.000000   0.000000   25.000000  OUTLET    
SC_SEWER_904X18  0.001000   0.100000   0.000000   0.000000   25.000000  OUTLET    
SC_SEWER_905X17  0.001000   0.100000   0.000000   0.000000   25.000000  OUTLET    
SC_SEWER_905X18  0.001000   0.100000   0.000000   0.000000   25.000000  OUTLET    
SC_SEWER_907X17  0.001000   0.100000   0.000000   0.000000   25.000000  OUTLET    
SC_SEWER_908X17  0.001000   0.100000   0.000000   0.000000   25.000000  OUTLET    
SC_SEWER_908Y17  0.001000   0.100000   0.000000   0.000000   25.000000  OUTLET    
SC_SEWER_909X17  0.001000   0.100000   0.000000   0.000000   25.000000  OUTLET    
SC_SEWER_909Y18  0.001000   0.100000   0.000000   0.000000   25.000000  OUTLET    
SC_SEWER_912Y17  0.001000   0.100000   0.000000   0.000000   25.000000  OUTLET    
SC_SEWER_914X18  0.001000   0.100000   0.000000   0.000000   25.000000  OUTLET    

[INFILTRATION]
;;Subcatchment   MaxRate    MinRate    Decay      DryTime    MaxInfil  
;;-------------- ---------- ---------- ---------- ---------- ----------
SC_SEWER_110Y18  3.0        0.5        4          7          0         
SC_SEWER_111X18  3.0        0.5        4          7          0         
SC_SEWER_115X18  3.0        0.5        4          7          0         
SC_SEWER_117Y18  3.0        0.5        4          7          0         
SC_SEWER_204Z17  3.0        0.5        4          7          0         
SC_SEWER_208Y18  3.0        0.5        4          7          0         
SC_SEWER_208Z17  3.0        0.5        4          7          0         
SC_SEWER_210Y18  3.0        0.5        4          7          0         
SC_SEWER_211Z17  3.0        0.5        4          7          0         
SC_SEWER_217Y18  3.0        0.5        4          7          0         
SC_SEWER_304Y17  3.0        0.5        4          7          0         
SC_SEWER_306Z17  3.0        0.5        4          7          0         
SC_SEWER_307Z18  3.0        0.5        4          7          0         
SC_SEWER_308Y17  3.0        0.5        4          7          0         
SC_SEWER_309X17  3.0        0.5        4          7          0         
SC_SEWER_309Z17  3.0        0.5        4          7          0         
SC_SEWER_312X18  3.0        0.5        4          7          0         
SC_SEWER_320X17  3.0        0.5        4          7          0         
SC_SEWER_325X17  3.0        0.5        4          7          0         
SC_SEWER_333X17  3.0        0.5        4          7          0         
SC_SEWER_401W18  3.0        0.5        4          7          0         
SC_SEWER_402X18  3.0        0.5        4          7          0         
SC_SEWER_403X18  3.0        0.5        4          7          0         
SC_SEWER_404X18  3.0        0.5        4          7          0         
SC_SEWER_405Y18  3.0        0.5        4          7          0         
SC_SEWER_409Y18  3.0        0.5        4          7          0         
SC_SEWER_410X18  3.0        0.5        4          7          0         
SC_SEWER_413X19  3.0        0.5        4          7          0         
SC_SEWER_414X19  3.0        0.5        4          7          0         
SC_SEWER_502X19  3.0        0.5        4          7          0         
SC_SEWER_503Y18  3.0        0.5        4          7          0         
SC_SEWER_505Y18  3.0        0.5        4          7          0         
SC_SEWER_506W18  3.0        0.5        4          7          0         
SC_SEWER_506Y18  3.0        0.5        4          7          0         
SC_SEWER_507Y18  3.0        0.5        4          7          0         
SC_SEWER_509W18  3.0        0.5        4          7          0         
SC_SEWER_510X19  3.0        0.5        4          7          0         
SC_SEWER_517X18  3.0        0.5        4          7          0         
SC_SEWER_518X18  3.0        0.5        4          7          0         
SC_SEWER_520X18  3.0        0.5        4          7          0         
SC_SEWER_520X19  3.0        0.5        4          7          0         
SC_SEWER_601X18  3.0        0.5        4          7          0         
SC_SEWER_602X18  3.0        0.5        4          7          0         
SC_SEWER_603X19  3.0        0.5        4          7          0         
SC_SEWER_604W18  3.0        0.5        4          7          0         
SC_SEWER_605Y18  3.0        0.5        4          7          0         
SC_SEWER_607Y18  3.0        0.5        4          7          0         
SC_SEWER_608X18  3.0        0.5        4          7          0         
SC_SEWER_608Y17  3.0        0.5        4          7          0         
SC_SEWER_611X17  3.0        0.5        4          7          0         
SC_SEWER_613X17  3.0        0.5        4          7          0         
SC_SEWER_613Y17  3.0        0.5        4          7          0         
SC_SEWER_615X18  3.0        0.5        4          7          0         
SC_SEWER_618X17  3.0        0.5        4          7          0         
SC_SEWER_622X17  3.0        0.5        4          7          0         
SC_SEWER_703W18  3.0        0.5        4          7          0         
SC_SEWER_705X18  3.0        0.5        4          7          0         
SC_SEWER_706W18  3.0        0.5        4          7          0         
SC_SEWER_707X18  3.0        0.5        4          7          0         
SC_SEWER_709X18  3.0        0.5        4          7          0         
SC_SEWER_713W18  3.0        0.5        4          7          0         
SC_SEWER_805Y17  3.0        0.5        4          7          0         
SC_SEWER_806Y17  3.0        0.5        4          7          0         
SC_SEWER_807Y17  3.0        0.5        4          7          0         
SC_SEWER_810X18  3.0        0.5        4          7          0         
SC_SEWER_901X17  3.0        0.5        4          7          0         
SC_SEWER_903W17  3.0        0.5        4          7          0         
SC_SEWER_904W17  3.0        0.5        4          7          0         
SC_SEWER_904X18  3.0        0.5        4          7          0         
SC_SEWER_905X17  3.0        0.5        4          7          0         
SC_SEWER_905X18  3.0        0.5        4          7          0         
SC_SEWER_907X17  3.0        0.5        4          7          0         
SC_SEWER_908X17  3.0        0.5        4          7          0         
SC_SEWER_908Y17  3.0        0.5        4          7          0         
SC_SEWER_909X17  3.0        0.5        4          7          0         
SC_SEWER_909Y18  3.0        0.5        4          7          0         
SC_SEWER_912Y17  3.0        0.5        4          7          0         
SC_SEWER_914X18  3.0        0.5        4          7          0         

[JUNCTIONS]
;;Name           Elevation  MaxDepth   InitDepth  SurDepth   Aponded   
;;-------------- ---------- ---------- ---------- ---------- ----------
; 107X18
107X18           23.690000  7.310000   0.000000   0.000000   0.000000  
; 107Y18
107Y18           23.870000  7.100000   0.000000   0.000000   0.000000  
; 108X18
108X18           25.000000  8.200000   0.000000   0.000000   0.000000  
; 108Y18
108Y18           24.000000  5.400000   0.000000   0.000000   0.000000  
; 109Y18
109Y18           24.680000  4.000000   0.000000   0.000000   0.000000  
; 110Y18
110Y18           24.870000  4.000000   0.000000   0.000000   0.000000  
; 111X18
111X18           25.900000  7.390000   0.000000   0.000000   0.000000  
; 115X18
115X18           26.160000  7.020000   0.000000   0.000000   0.000000  
; 117Y18
117Y18           25.770000  5.000000   0.000000   0.000000   0.000000  
; 201Y18
201Y18           27.010000  5.010000   0.000000   0.000000   0.000000  
; 202Z17
202Z17           14.480000  9.970000   0.000000   0.000000   0.000000  
; 203Z17
203Z17           15.150000  10.930000  0.000000   0.000000   0.000000  
; 203Z18
203Z18           17.800000  8.150000   0.000000   0.000000   0.000000  
; 204Z17
204Z17           17.500000  7.080000   0.000000   0.000000   0.000000  
; 205Y18
205Y18           25.100000  4.120000   0.000000   0.000000   0.000000  
; 206Y18
206Y18           25.130000  4.000000   0.000000   0.000000   0.000000  
; 206Z17
206Z17           11.780000  12.170000  0.000000   0.000000   0.000000  
; 208Y18
208Y18           25.770000  4.290000   0.000000   0.000000   0.000000  
; 208Z17
208Z17           11.920000  12.350000  0.000000   0.000000   0.000000  
; 209Y18
209Y18           24.410000  6.100000   0.000000   0.000000   0.000000  
; 210Y18
210Y18           24.730000  6.870000   0.000000   0.000000   0.000000  
; 211Z17
211Z17           10.650000  13.300000  0.000000   0.000000   0.000000  
; 217X19
217X19           28.860000  5.560000   0.000000   0.000000   0.000000  
; 217Y18
217Y18           24.320000  6.000000   0.000000   0.000000   0.000000  
; 302Z17
302Z17           7.420000   18.180000  0.000000   0.000000   0.000000  
; 303Y17
303Y17           11.930000  17.000000  0.000000   0.000000   0.000000  
; 304X17
304X17           15.900000  9.700000   0.000000   0.000000   0.000000  
; 304Y17
304Y17           11.920000  17.700000  0.000000   0.000000   0.000000  
; 304Z18
304Z18           12.700000  13.800000  0.000000   0.000000   0.000000  
; 305Z17
305Z17           10.730000  17.570000  0.000000   0.000000   0.000000  
; 306Z17
306Z17           7.600000   17.430000  0.000000   0.000000   0.000000  
; 307Y18
307Y18           20.340000  5.160000   0.000000   0.000000   0.000000  
; 307Z18
307Z18           13.600000  13.900000  0.000000   0.000000   0.000000  
; 308X18
308X18           23.080000  12.520000  0.000000   0.000000   0.000000  
; 308Y17
308Y17           12.440000  18.600000  0.000000   0.000000   0.000000  
; 308Y18
308Y18           20.730000  6.990000   0.000000   0.000000   0.000000  
; dummy node
308Y18_DUM       20.730000  6.990000   0.000000   0.000000   0.000000  
; 308Z17
308Z17           7.820000   17.180000  0.000000   0.000000   0.000000  
; 309X17
309X17           17.620000  10.900000  0.000000   0.000000   0.000000  
; 309Y18
309Y18           28.560000  4.850000   0.000000   0.000000   0.000000  
; 309Z17
309Z17           9.350000   14.650000  0.000000   0.000000   0.000000  
; 311Y18
311Y18           28.890000  3.290000   0.000000   0.000000   0.000000  
; 311Z18
311Z18           16.620000  9.580000   0.000000   0.000000   0.000000  
; 312X18
312X18           22.380000  11.220000  0.000000   0.000000   0.000000  
; 320X17
320X17           16.360000  9.550000   0.000000   0.000000   0.000000  
; 325X17
325X17           23.280000  6.230000   0.000000   0.000000   0.000000  
; 328X17
328X17           16.900000  12.500000  0.000000   0.000000   0.000000  
; 333X17
333X17           20.070000  5.040000   0.000000   0.000000   0.000000  
; 401W18
401W18           19.920000  13.820000  0.000000   0.000000   0.000000  
; 401X19
401X19           22.220000  15.680000  0.000000   0.000000   0.000000  
; 401Y18
401Y18           22.790000  6.000000   0.000000   0.000000   0.000000  
; 402X18
402X18           21.910000  12.200000  0.000000   0.000000   0.000000  
; 402Y18
402Y18           22.740000  6.700000   0.000000   0.000000   0.000000  
; 403X18
403X18           19.220000  12.000000  0.000000   0.000000   0.000000  
; 403Y18
403Y18           22.560000  7.540000   0.000000   0.000000   0.000000  
; 404X18
404X18           20.460000  8.050000   0.000000   0.000000   0.000000  
; 404X19
404X19           21.480000  16.520000  0.000000   0.000000   0.000000  
; 405Y18
405Y18           22.400000  11.700000  0.000000   0.000000   0.000000  
; 406X19
406X19           20.740000  15.660000  0.000000   0.000000   0.000000  
; 408X19
408X19           26.820000  6.360000   0.000000   0.000000   0.000000  
; 409Y18
409Y18           23.470000  6.000000   0.000000   0.000000   0.000000  
; 410X18
410X18           17.270000  12.200000  0.000000   0.000000   0.000000  
; 413X19
413X19           25.710000  8.160000   0.000000   0.000000   0.000000  
; 414X19
414X19           24.630000  10.960000  0.000000   0.000000   0.000000  
; 501X19
501X19           25.430000  9.490000   0.000000   0.000000   0.000000  
; 502X19
502X19           24.410000  8.400000   0.000000   0.000000   0.000000  
; 503Y18
503Y18           23.940000  4.500000   0.000000   0.000000   0.000000  
; 504Y18
504Y18           24.234000  4.096000   0.000000   0.000000   0.000000  
; 505Y18