[TITLE]
;;Project Title/Notes
INP file created on 2018/7/3 14:32:30 by thinkpad with inpPINS version 0.0.3.0
Title/Notes:

[OPTIONS]
;;Option             Value
FLOW_UNITS           CMS
INFILTRATION         MODIFIED_GREEN_AMPT
FLOW_ROUTING         DYNWAVE
LINK_OFFSETS         DEPTH
MIN_SLOPE            0
ALLOW_PONDING        NO
SKIP_STEADY_STATE    NO

START_DATE           07/03/2018
START_TIME           07:45:00
REPORT_START_DATE    07/03/2018
REPORT_START_TIME    07:45:00
END_DATE             07/03/2018
END_TIME             11:00:00
SWEEP_START          01/01
SWEEP_END            12/31
DRY_DAYS             0
REPORT_STEP          00:01:00
WET_STEP             00:05:00
DRY_STEP             01:00:00
ROUTING_STEP         0:00:10 

INERTIAL_DAMPING     PARTIAL
NORMAL_FLOW_LIMITED  BOTH
FORCE_MAIN_EQUATION  D-W
VARIABLE_STEP        0.75
LENGTHENING_STEP     0
MIN_SURFAREA         12.557
MAX_TRIALS           8
HEAD_TOLERANCE       0.005
SYS_FLOW_TOL         5
LAT_FLOW_TOL         5
MINIMUM_STEP         0.5
THREADS              1

[EVAPORATION]
;;Data Source    Parameters
;;-------------- ----------------
CONSTANT         0.0
DRY_ONLY         NO

[RAINGAGES]
;;Name           Format    Interval SCF      Source    
;;-------------- --------- ------ ------ ----------
RainGage_1       INTENSITY 0:05     1.0      TIMESERIES 50_Year         

[SUBCATCHMENTS]
;;Name           Rain Gage        Outlet           Area     %Imperv  Width    %Slope   CurbLen  SnowPack        
;;-------------- ---------------- ---------------- -------- -------- -------- -------- -------- ----------------
S1               RainGage_1       N50              6.63168884677 0.899959 257.52065639 14.776150698 0                        
S2               RainGage_1       N100             13.1965317163 0.9202215 363.270308672 10.1487774168 0                        
S3               RainGage_1       N925             11.7437169313 0.9151581 342.691069789 7.21357280476 0                        
S4               RainGage_1       N929             14.6541941253 0.9393715 382.80796916 13.2297864454 0                        
S5               RainGage_1       N318             2.66054178531 0.9666916 163.111672952 7.72911148021 0                        
S6               RainGage_1       N467             2.53189119365 1        159.119175264 8.45587969346 0                        
S7               RainGage_1       N402             2.50142760196 0.882537 158.159021303 19.8055695858 0                        
S8               RainGage_1       N414             2.35252606009 0.849653 153.379466034 9.00444000672 0                        
S9               RainGage_1       N625             3.81172449499 1        195.236382239 6.16427792545 0                        
S10              RainGage_1       N508             1.83911704202 1        135.614049494 11.3781775078 0                        
S11              RainGage_1       N331             1.20042534056 1        109.563923833 10.1148471407 0                        
S12              RainGage_1       N231             1.5520932264 1        124.583033612 10.2371130058 0                        
S13              RainGage_1       N226             0.869694901512 1        93.2574341011 12.9931130903 0                        
S14              RainGage_1       N184             1.76906893423 0.9388499 133.006350759 14.2073971513 0                        
S15              RainGage_1       N190             1.3649246623 0.9207439 116.829990255 9.7644512021 0                        
S16              RainGage_1       N541             1.85846588899 0.740168 136.325562129 8.34252426722 0                        
S17              RainGage_1       N490             1.04589596037 1        102.269054966 8.42588179295 0                        
S18              RainGage_1       N596             1.97156853428 0.890429 140.412554078 9.80613575687 0                        
S19              RainGage_1       N582             1.15390642753 1        107.420036657 7.19944823393 0                        
S20              RainGage_1       N579             1.07324650561 1        103.597611247 6.55880966463 0                        
S21              RainGage_1       N669             1.4180939569 0.951541 119.083750231 10.5725043166 0                        
S22              RainGage_1       N658             0.66243144339 1        81.3898914725 7.67696086033 0                        
S23              RainGage_1       N679             1.22274853664 1        110.577960582 12.7311435692 0                        
S24              RainGage_1       N826             0.825485184246 1        90.856215211 2.09558499647 0                        
S25              RainGage_1       N825             0.916884113125 1        95.7540658732 4.38623747277 0                        
S26              RainGage_1       N693             1.30351149167 0.942684 114.17142776 12.9435038187 0                        
S27              RainGage_1       N711             0.790768244197 1        88.9251507841 6.10064900054 0                        
S28              RainGage_1       N701             0.908336214666 1        95.3066741979 9.3313683797 0                        
S29              RainGage_1       N910             1.17354697 1        108.330372934 14.4497451352 0                        
S30              RainGage_1       N896             0.823395048419 1        90.7411179356 8.43136745807 0                        
S31              RainGage_1       N897             0.920203622699 1        95.9272444459 5.70242024338 0                        
S32              RainGage_1       N368             3.65314853111 1        191.132114808 9.57619310721 0                        
S33              RainGage_1       N439             5.20624667724 0.748907 228.17201137 5.51112953666 0                        
S34              RainGage_1       N644             3.42450091561 0.650043 185.054070898 5.41058684971 0                        
S36              RainGage_1       N765             3.90710521967 1        197.663988113 5.82567421357 0                        
S37              RainGage_1       N736             3.36480262382 0.9578503 183.433983324 9.1543312271 0                        
S38              RainGage_1       N805             1.8990785362 0.773029 137.807058462 5.32330190648 0                        
S39              RainGage_1       N872             2.45440689418 1        156.665468249 7.53301563779 0                        
S40              RainGage_1       N850             3.83393161036 1        195.804280095 10.7632372278 0                        
S41              RainGage_1       N341             3.0460453506 1        174.529233958 6.52687527834 0                        
S42              RainGage_1       N356             1.80024997431 1        134.173394319 5.65285453495 0                        
S43              RainGage_1       N269             5.61642882086 0.922685 236.990059303 12.3082777822 0                        
S44              RainGage_1       N938             2.243274 0.875573 149.775648 18.890997 0                        
S35              RainGage_1       N636             3.267184 0.884288 180.7536 4.947996 0                        
S45              RainGage_1       N756             2.120507 0.884288 145.6196072 4.947996 0                        

[SUBAREAS]
;;Subcatchment   N-Imperv   N-Perv     S-Imperv   S-Perv     PctZero    RouteTo    PctRouted 
;;-------------- ---------- ---------- ---------- ---------- ---------- ---------- ----------
S1               0.01       0.1        0.05       0.05       25         OUTLET    
S2               0.01       0.1        0.05       0.05       25         OUTLET    
S3               0.01       0.1        0.05       0.05       25         OUTLET    
S4               0.01       0.1        0.05       0.05       25         OUTLET    
S5               0.01       0.1        0.05       0.05       25         OUTLET    
S6               0.01       0.1        0.05       0.05       25         OUTLET    
S7               0.01       0.1        0.05       0.05       25         OUTLET    
S8               0.01       0.1        0.05       0.05       25         OUTLET    
S9               0.01       0.1        0.05       0.05       25         OUTLET    
S10              0.01       0.1        0.05       0.05       25         OUTLET    
S11              0.01       0.1        0.05       0.05       25         OUTLET    
S12              0.01       0.1        0.05       0.05       25         OUTLET    
S13              0.01       0.1        0.05       0.05       25         OUTLET    
S14              0.01       0.1        0.05       0.05       25         OUTLET    
S15              0.01       0.1        0.05       0.05       25         OUTLET    
S16              0.01       0.1        0.05       0.05       25         OUTLET    
S17              0.01       0.1        0.05       0.05       25         OUTLET    
S18              0.01       0.1        0.05       0.05       25         OUTLET    
S19              0.01       0.1        0.05       0.05       25         OUTLET    
S20              0.01       0.1        0.05       0.05       25         OUTLET    
S21              0.01       0.1        0.05       0.05       25         OUTLET    
S22              0.01       0.1        0.05       0.05       25         OUTLET    
S23              0.01       0.1        0.05       0.05       25         OUTLET    
S24              0.01       0.1        0.05       0.05       25         OUTLET    
S25              0.01       0.1        0.05       0.05       25         OUTLET    
S26              0.01       0.1        0.05       0.05       25         OUTLET    
S27              0.01       0.1        0.05       0.05       25         OUTLET    
S28              0.01       0.1        0.05       0.05       25         OUTLET    
S29              0.01       0.1        0.05       0.05       25         OUTLET    
S30              0.01       0.1        0.05       0.05       25         OUTLET    
S31              0.01       0.1        0.05       0.05       25         OUTLET    
S32              0.01       0.1        0.05       0.05       25         OUTLET    
S33              0.01       0.1        0.05       0.05       25         OUTLET    
S34              0.01       0.1        0.05       0.05       25         OUTLET    
S36              0.01       0.1        0.05       0.05       25         OUTLET    
S37              0.01       0.1        0.05       0.05       25         OUTLET    
S38              0.01       0.1        0.05       0.05       25         OUTLET    
S39              0.01       0.1        0.05       0.05       25         OUTLET    
S40              0.01       0.1        0.05       0.05       25         OUTLET    
S41              0.01       0.1        0.05       0.05       25         OUTLET    
S42              0.01       0.1        0.05       0.05       25         OUTLET    
S43              0.01       0.1        0.05       0.05       25         OUTLET    
S44              0.01       0.1        0.05       0.05       25         OUTLET    
S35              0.01       0.1        0.05       0.05       25         OUTLET    
S45              0.01       0.1        0.05       0.05       25         OUTLET    

[INFILTRATION]
;;Subcatchment   Suction    Ksat       IMD       
;;-------------- ---------- ---------- ----------
S1               3          0.5        4         
S2               3          0.5        4         
S3               3          0.5        4         
S4               3          0.5        4         
S5               3          0.5        4         
S6               3          0.5        4         
S7               3          0.5        4         
S8               3          0.5        4         
S9               3          0.5        4         
S10              3          0.5        4         
S11              3          0.5        4         
S12              3          0.5        4         
S13              3          0.5        4         
S14              3          0.5        4         
S15              3          0.5        4         
S16              3          0.5        4         
S17              3          0.5        4         
S18              3          0.5        4         
S19              3          0.5        4         
S20              3          0.5        4         
S21              3          0.5        4         
S22              3          0.5        4         
S23              3          0.5        4         
S24              3          0.5        4         
S25              3          0.5        4         
S26              3          0.5        4         
S27              3          0.5        4         
S28              3          0.5        4         
S29              3          0.5        4         
S30              3          0.5        4         
S31              3          0.5        4         
S32              3          0.5        4         
S33              3          0.5        4         
S34              3          0.5        4         
S36              3          0.5        4         
S37              3          0.5        4         
S38              3          0.5        4         
S39              3          0.5        4         
S40              3          0.5        4         
S41              3          0.5        4         
S42              3          0.5        4         
S43              3          0.5        4         
S44              3.0        0.5        4         
S35              3.0        0.5        4         
S45              3.0        0.5        4         

[JUNCTIONS]
;;Name           Elevation  MaxDepth   InitDepth  SurDepth   Aponded   
;;-------------- ---------- ---------- ---------- ---------- ----------
N1               10.4       1.2        0          0          100       
N10              12.9       1.2        0          0          100       
N100             2          2.2        0          0          100       
N101             7.6        1.2        0          0          100       
N102             8.4        1.2        0          0          100       
N103             9          1.2        0          0          100       
N104             16.4       1.2        0          0          100       
N108             13.5       1.2        0          0          100       
N109             19.6       1.2        0          0          100       
N11              15.5       1.2        0          0          100       
N110             29.1       1.2        0          0          100       
N111             0.5        2.2        0          0          100       
N112             0.5        2.2        0          0          100       
N113             0.4        2.2        0          0          100       
N114             -1.2       4.2        0          0          100       
N117             -3         4.2        0          0          100       
N118             -1.5       4.2        0          0          100       
N119             -0.6       4.2        0          0          100       
N12              20.8       1.2        0          0          100       
N120             -1.3       4.2        0          0          100       
N128             -2.5       4.2        0          0          100       
N129             1.15       2.85       0          0          100       
N130             1.45       2.85       0          0          100       
N131             3.9        2.7        0          0          100       
N132             6.2        2.7        0          0          100       
N133             9          2.2        0          0          100       
N134             23.2       2.2        0          0          100       
N135             16.4       1.2        0          0          100       
N136             16.6       1.2        0          0          100       
N137             16         1.2        0          0          100       
N14              18.2       1.2        0          0          100       
N140             16.6       1.2        0          0          100       
N141             16.6       1.2        0          0          100       
N142             23.9       1.2        0          0          100       
N143             23.2       1.2        0          0          100       
N144             22.5       1.2        0          0          100       
N15              3.3        3          0          0          100       
N156             21.1       1.2        0          0          100       
N157             22.3       1.2        0          0          100       
N158             22.8       1.2        0          0          100       
N159             23         1.2        0          0          100       
N16              9.5        1.2        0          0          100       
N167             61.1       1.2        0          0          100       
N168             68.5       1.2        0          0          100       
N17              9.5        3          0          0          100       
N170             73.9       1.2        0          0          100       
N171             75.2       1.2        0          0          100       
N173             49.1       3.2        0          0          100       
N180             48.2       1.2        0          0          100       
N181             48.7       1.2        0          0          100       
N183             54.7       1.2        0          0          100       
N184             50         16.8       0          0          100       
N186             53         1.2        0          0          100       
N188             52.3       1.8        0          0          100       
N19              12.3       3          0          0          100       
N190             52.6       1.2        0          0          100       
N191             53         1.2        0          0          100       
N192             52.6       5.5        0          0          100       
N193             52.6       8.5        0          0          100       
N194             52         12.2       0          0          100       
N195             52         11.8       0          0          100       
N196             50         13.2       0          0          100       
N197             50.1       14.8       0          0          100       
N199             61.1       1.2        0          0          100       
N201             61         1.2        0          0          100       
N206             60.9       1.2        0          0          100       
N207             51.3       1.2        0          0          100       
N208             54.8       1.2        0          0          100       
N209             58.2       1.2        0          0          100       
N21              14.2       1.2        0          0          100       
N210             57         1.2        0          0          100       
N211             50.1       4.2        0          0          100       
N214             61         1.2        0          0          100       
N215             60.1       1.2        0          0          100       
N216             57.8       1.2        0          0          100       
N217             56.4       1.2        0          0          100       
N218             54.6       1.2        0          0          100       
N219             53.9       1.2        0          0          100       
N221             51.2       3.2        0          0          100       
N223             51.4       1.2        0          0          100       
N225             51.6       1.2        0          0          100       
N226             52.1       1.2        0          0          100       
N227             68.9       1.2        0          0          100       
N228             70.7       1.2        0          0          100       
N229             70.3       2.2        0          0          100       
N230             73.6       1.2        0          0          100       
N231             70.4       1.2        0          0          100       
N233             68.8       1.2        0          0          100       
N234             60.7       1.2        0          0          100       
N235             61.6       1.2        0          0          100       
N239             74         1.2        0          0          100       
N240             75.1       1.2        0          0          100       
N241             73.7       1.2        0          0          100       
N243             68         1.2        0          0          100       
N244             67.7       1.2        0          0          100       
N245             65.6       1.2        0          0          100       
N246             64.7       1.2        0          0          100       
N248             52         1.2        0          0          100       
N25              32.7       8.2        0          0          100       
N251             51.9       1.2        0          0          100       
N252             51.9       1.2        0          0          100       
N253             51.5       1.2        0          0          100       
N254             54.2       1.2        0          0          100       
N255             53.7       1.2        0          0          100       
N26              32.9       17.2       0          0          100       
N261             56.9       1.2        0          0          100       
N262             52.2       1.2        0          0          100       
N263             56.6       1.2        0          0          100       
N264             48.4       9.2        0          0          100       
N265             48.7       12.2       0          0          100       
N266             49.5       13.2       0          0          100       
N267             52.4       17.2       0          0          100       
N268             54         15.2       0          0          100       
N269             55.9       17.2       0          0          100       
N27              32.6       11.2       0          0          100       
N270             62.4       1.2        0          0          100       
N271             59.3       1.2        0          0          100       
N272             59.3       1.2        0          0          100       
N273             60.4       1.2        0          0          100       
N274             63.4       1.2        0          0          100       
N275             65.6       1.2        0          0          100       
N276             57.95      2.55       0          0          100       
N278             64.55      2.55       0          0          100       
N279             69.45      2.55       0          0          100       
N28              32.3       3.2        0          0          100       
N280             73.45      2.55       0          0          100       
N281             78.7       1.2        0          0          100       
N282             81.5       1.2        0          0          100       
N284             87.6       1.2        0          0          100       
N29              24.3       1.2        0          0          100       
N291             69.6       1.2        0          0          100       
N292             58.5       1.2        0          0          100       
N293             50.6       1.2        0          0          100       
N294             43.8       1.2        0          0          100       
N295             41         2.2        0          0          100       
N297             42.5       1.2        0          0          100       
N298             41         1.2        0          0          100       
N299             46         6.2        0          0          100       
N300             43.2       1.2        0          0          100       
N301             41.7       1.2        0          0          100       
N302             41.6       1.2        0          0          100       
N304             44.2       3.2        0          0          100       
N305             43.9       4.2        0          0          100       
N306             40.1       7.2        0          0          100       
N307             51.6       1.2        0          0          100       
N31              30.3       1.2        0          0          100       
N310             52.7       1.2        0          0          100       
N311             52.7       2.2        0          0          100       
N313             52.4       1.2        0          0          100       
N314             51.1       1.2        0          0          100       
N315             51.3       1.2        0          0          100       
N318             39.8       2.2        0          0          100       
N319             39.1       1.2        0          0          100       
N320             38.6       1.8        0          0          100       
N321             38.6       5.4        0          0          100       
N324             39.6       1.2        0          0          100       
N325             39.3       1.2        0          0          100       
N329             47.4       1.2        0          0          100       
N330             50.7       1.2        0          0          100       
N331             54         2.2        0          0          100       
N332             53.3       3          0          0          100       
N333             39.7       1.2        0          0          100       
N334             38.1       1.2        0          0          100       
N335             37.6       1.2        0          0          100       
N336             36.1       2.2        0          0          100       
N337             38.6       4.2        0          0          100       
N338             38.6       6.8        0          0          100       
N34              15.8       1.2        0          0          100       
N341             41.4       1.2        0          0          100       
N342             41.7       1.2        0          0          100       
N344             43.6       1.2        0          0          100       
N345             44.2       1.2        0          0          100       
N346             43.9       1.2        0          0          100       
N347             42.9       1.2        0          0          100       
N35              16.1       1.2        0          0          100       
N351             37.3       1.2        0          0          100       
N352             36         4.2        0          0          100       
N355             39.6       1.2        0          0          100       
N356             40.6       1.2        0          0          100       
N357             38.5       1.2        0          0          100       
N358             37.8       2.2        0          0          100       
N359             35.6       5.2        0          0          100       
N36              15.7       1.2        0          0          100       
N361             39.1       1.2        0          0          100       
N362             40.5       1.2        0          0          100       
N363             35.8       9.2        0          0          100       
N364             48.1       1.2        0          0          100       
N365             49.4       1.2        0          0          100       
N366             50.6       1.2        0          0          100       
N367             51.4       1.2        0          0          100       
N368             36.4       6.2        0          0          100       
N369             36         2.2        0          0          100       
N37              14.9       1.2        0          0          100       
N370             36.1       2.2        0          0          100       
N371             36         2.2        0          0          100       
N372             36         3.2        0          0          100       
N373             36         7.6        0          0          100       
N374             44.8       1.2        0          0          100       
N375             36.6       1.2        0          0          100       
N376             37.2       1.2        0          0          100       
N377             39.3       1.2        0          0          100       
N378             37.3       1.2        0          0          100       
N379             36.8       1.2        0          0          100       
N38              14.6       1.2        0          0          100       
N380             70.8       1.2        0          0          100       
N381             92.1       1.2        0          0          100       
N382             95.3       1.2        0          0          100       
N383             95.9       1.2        0          0          100       
N384             95.9       1.2        0          0          100       
N385             102.5      1.2        0          0          100       
N386             97.4       1.2        0          0          100       
N388             82.5       1.2        0          0          100       
N39              14.8       1.2        0          0          100       
N391             36         2.2        0          0          100       
N392             35.9       2.2        0          0          100       
N393             35.9       2.8        0          0          100       
N394             35.9       2.9        0          0          100       
N395             35.9       4.6        0          0          100       
N396             35.9       9.8        0          0          100       
N397             47.7       11.2       0          0          100       
N398             57.8       11.2       0          0          100       
N399             61.8       1.2        0          0          100       
N40              14.3       1.2        0          0          100       
N400             62.8       1.2        0          0          100       
N402             68.4       11.2       0          0          100       