[TITLE]
;;Project Title/Notes

[OPTIONS]
;;Option             Value
FLOW_UNITS           GPM
INFILTRATION         CURVE_NUMBER
FLOW_ROUTING         DYNWAVE
LINK_OFFSETS         DEPTH
MIN_SLOPE            0
ALLOW_PONDING        YES
SKIP_STEADY_STATE    NO

IGNORE_SNOWMELT      YES
IGNORE_GROUNDWATER   YES
IGNORE_QUALITY       YES
START_DATE           12/12/2015
START_TIME           00:00:00
REPORT_START_DATE    12/12/2015
REPORT_START_TIME    00:00:00
END_DATE             12/14/2015
END_TIME             00:00:00
SWEEP_START          01/01
SWEEP_END            12/31
DRY_DAYS             0.000000
REPORT_STEP          00:05:00
WET_STEP             00:01:00
DRY_STEP             00:05:00
ROUTING_STEP         0:00:10 

INERTIAL_DAMPING     NONE
NORMAL_FLOW_LIMITED  BOTH
FORCE_MAIN_EQUATION  H-W
VARIABLE_STEP        0.75
LENGTHENING_STEP     5
MIN_SURFAREA         12.557
MAX_TRIALS           8
HEAD_TOLERANCE       0.000100
SYS_FLOW_TOL         5
LAT_FLOW_TOL         5
MINIMUM_STEP         0
THREADS              1

[EVAPORATION]
;;Data Source    Parameters
;;-------------- ----------------
CONSTANT         0.0
DRY_ONLY         NO

[RAINGAGES]
;;Name           Format    Interval SCF      Source    
;;-------------- --------- ------ ------ ----------
; Storm events for calibration
CALIBRATION      VOLUME    1.000000 1.000000 TIMESERIES DEC13_INTENSITY 
; No rain
RAINGAGE-1       CUMULATIVE 0.100000 1.000000 TIMESERIES TIMESERI-1      

[SUBCATCHMENTS]
;;Name           Rain Gage        Outlet           Area     %Imperv  Width    %Slope   CurbLen  SnowPack        
;;-------------- ---------------- ---------------- -------- -------- -------- -------- -------- ----------------
; 1042160.67836534
SUB_001          CALIBRATION      34702            0.000100 0.000000 500.000000 1.000000 0.000000                 
; 2967297.19342576
SUB_002          CALIBRATION      41165            0.000100 0.000000 500.000000 1.000000 0.000000                 
; 518827.799335082
SUB_003          CALIBRATION      41193            0.000100 0.000000 500.000000 1.000000 0.000000                 
; 518476.896137026
SUB_004          CALIBRATION      41302            0.000100 0.000000 500.000000 1.000000 0.000000                 
; 488527.871907124
SUB_005          CALIBRATION      41265            0.000100 0.000000 500.000000 1.000000 0.000000                 
; 502395.332140058
SUB_006          CALIBRATION      41727            0.000100 0.000000 500.000000 1.000000 0.000000                 
; 212804.13746776
SUB_007          CALIBRATION      41530            0.000100 0.000000 500.000000 1.000000 0.000000                 
; 342720.723826538
SUB_008          CALIBRATION      41366            0.000100 0.000000 500.000000 1.000000 0.000000                 
; 94492.4927218995
SUB_009          CALIBRATION      41257            0.000100 0.000000 500.000000 1.000000 0.000000                 
; 723654.721604667
SUB_011          CALIBRATION      41191            0.000100 0.000000 500.000000 1.000000 0.000000                 
; 366546.328467286
SUB_012          CALIBRATION      41185            0.000100 0.000000 500.000000 1.000000 0.000000                 
; 285902.121051349
SUB_013          CALIBRATION      41243            0.000100 0.000000 500.000000 1.000000 0.000000                 
; 358809.357384207
SUB_014          CALIBRATION      41211            0.000100 0.000000 500.000000 1.000000 0.000000                 
; 175727.537075977
SUB_015          CALIBRATION      41190            0.000100 0.000000 500.000000 1.000000 0.000000                 
; 115634.821210967
SUB_016          CALIBRATION      41199            0.000100 0.000000 500.000000 1.000000 0.000000                 
; 850675.482891902
SUB_017          CALIBRATION      41170            0.000100 0.000000 500.000000 1.000000 0.000000                 
; 454739.647073448
SUB_018          CALIBRATION      41203            0.000100 0.000000 500.000000 1.000000 0.000000                 
; 542856.055488812
SUB_020          CALIBRATION      41163            0.000100 0.000000 500.000000 1.000000 0.000000                 
; 550941.721574838
SUB_021          CALIBRATION      41192            0.000100 0.000000 500.000000 1.000000 0.000000                 
; 378909.264452767
SUB_022          CALIBRATION      41166            0.000100 0.000000 500.000000 1.000000 0.000000                 
; 248260.310061378
SUB_023          CALIBRATION      41232            0.000100 0.000000 500.000000 1.000000 0.000000                 
; 194131.912693718
SUB_024          CALIBRATION      41221            0.000100 0.000000 500.000000 1.000000 0.000000                 
; 529487.728472244
SUB_025          CALIBRATION      41220            0.000100 0.000000 500.000000 1.000000 0.000000                 
; 827032.121775354
SUB_026          CALIBRATION      41160            0.000100 0.000000 500.000000 1.000000 0.000000                 
; 616615.611236715
SUB_027          CALIBRATION      41194            0.000100 0.000000 500.000000 1.000000 0.000000                 
; 984914.709496535
SUB_028          CALIBRATION      41226            0.000100 0.000000 500.000000 1.000000 0.000000                 
; 1418818.76569114
SUB_029          CALIBRATION      41204            0.000100 0.000000 500.000000 1.000000 0.000000                 
; 797873.447532394
SUB_030          CALIBRATION      41178            0.000100 0.000000 500.000000 1.000000 0.000000                 
; 399063.071133919
SUB_031          CALIBRATION      41680            0.000100 0.000000 500.000000 1.000000 0.000000                 
; 229773.76403929
SUB_032          CALIBRATION      41488            0.000100 0.000000 500.000000 1.000000 0.000000                 
; 388963.081351309
SUB_033          CALIBRATION      41310            0.000100 0.000000 500.000000 1.000000 0.000000                 
; 885542.19441881
SUB_034          CALIBRATION      41275            0.000100 0.000000 500.000000 1.000000 0.000000                 
; 1126218.75255388
SUB_035          CALIBRATION      41274            0.000100 0.000000 500.000000 1.000000 0.000000                 
; 531665.295728667
SUB_036          CALIBRATION      41563            0.000100 0.000000 500.000000 1.000000 0.000000                 
; 533435.271615959
SUB_037          CALIBRATION      41595            0.000100 0.000000 500.000000 1.000000 0.000000                 
; 547169.919337714
SUB_038          CALIBRATION      41444            0.000100 0.000000 500.000000 1.000000 0.000000                 
; 317033.86389436
SUB_039          CALIBRATION      41517            0.000100 0.000000 500.000000 1.000000 0.000000                 
; 463608.21174698
SUB_040          CALIBRATION      41295            0.000100 0.000000 500.000000 1.000000 0.000000                 
; 281390.509012105
SUB_041          CALIBRATION      41268            0.000100 0.000000 500.000000 1.000000 0.000000                 
; 293674.565326625
SUB_042          CALIBRATION      41594            0.000100 0.000000 500.000000 1.000000 0.000000                 
; 418065.069789899
SUB_043          CALIBRATION      41333            0.000100 0.000000 500.000000 1.000000 0.000000                 
; 649381.929997988
SUB_044          CALIBRATION      41311            0.000100 0.000000 500.000000 1.000000 0.000000                 
; 431258.677198488
SUB_045          CALIBRATION      41548            0.000100 0.000000 500.000000 1.000000 0.000000                 
; 607877.73536752
SUB_046          CALIBRATION      41540            0.000100 0.000000 500.000000 1.000000 0.000000                 
; 661045.127301464
SUB_047          CALIBRATION      41539            0.000100 0.000000 500.000000 1.000000 0.000000                 
; 276502.44049894
SUB_048          CALIBRATION      41688            0.000100 0.000000 500.000000 1.000000 0.000000                 
; 254690.772956671
SUB_049          CALIBRATION      41610            0.000100 0.000000 500.000000 1.000000 0.000000                 
; 482013.977544253
SUB_050          CALIBRATION      41571            0.000100 0.000000 500.000000 1.000000 0.000000                 
; 466964.979482422
SUB_051          CALIBRATION      41609            0.000100 0.000000 500.000000 1.000000 0.000000                 
; 400698.820992553
SUB_052          CALIBRATION      41374            0.000100 0.000000 500.000000 1.000000 0.000000                 
; 834437.611631764
SUB_053          CALIBRATION      41702            0.000100 0.000000 500.000000 1.000000 0.000000                 
; 723419.286911993
SUB_054          CALIBRATION      41346            0.000100 0.000000 500.000000 1.000000 0.000000                 
; 660504.750017668
SUB_055          CALIBRATION      41667            0.000100 0.000000 500.000000 1.000000 0.000000                 
; 298886.632740652
SUB_056          CALIBRATION      41379            0.000100 0.000000 500.000000 1.000000 0.000000                 
; 802095.068188223
SUB_057          CALIBRATION      34801            0.000100 0.000000 500.000000 1.000000 0.000000                 
; 354990.047364182
SUB_058          CALIBRATION      34699            0.000100 0.000000 500.000000 1.000000 0.000000                 
; 1805481.19894839
SUB_059          CALIBRATION      35036            0.000100 0.000000 500.000000 1.000000 0.000000                 
; 1681174.76409771
SUB_060          CALIBRATION      41733            0.000100 0.000000 500.000000 1.000000 0.000000                 
; 1190880.09957067
SUB_061          CALIBRATION      41704            0.000100 0.000000 500.000000 1.000000 0.000000                 
; 5542780.47842229
SUB_062          CALIBRATION      41743            0.000100 0.000000 500.000000 1.000000 0.000000                 
; 1081180.71019444
SUB_063          CALIBRATION      41786            0.000100 0.000000 500.000000 1.000000 0.000000                 
; 2283038.53608585
SUB_064          CALIBRATION      41370            0.000100 0.000000 500.000000 1.000000 0.000000                 
; 716737.196806969
SUB_065          CALIBRATION      41352            0.000100 0.000000 500.000000 1.000000 0.000000                 
; 817172.960864483
SUB_066          CALIBRATION      41647            0.000100 0.000000 500.000000 1.000000 0.000000                 
; 583285.348111109
SUB_067          CALIBRATION      41466            0.000100 0.000000 500.000000 1.000000 0.000000                 
; 879038.683966914
SUB_068          CALIBRATION      41650            0.000100 0.000000 500.000000 1.000000 0.000000                 
; 216475.415498286
SUB_069          CALIBRATION      41337            0.000100 0.000000 500.000000 1.000000 0.000000                 
; 219848.255533423
SUB_070          CALIBRATION      41555            0.000100 0.000000 500.000000 1.000000 0.000000                 
; 169663.703039966
SUB_071          CALIBRATION      41673            0.000100 0.000000 500.000000 1.000000 0.000000                 
; 159183.815682405
SUB_072          CALIBRATION      41797            0.000100 0.000000 500.000000 1.000000 0.000000                 
; 413397.018957886
SUB_073          CALIBRATION      41656            0.000100 0.000000 500.000000 1.000000 0.000000                 
; 251672.91701393
SUB_074          CALIBRATION      41330            0.000100 0.000000 500.000000 1.000000 0.000000                 
; 1072829.55635719
SUB_075          CALIBRATION      41597            0.000100 0.000000 500.000000 1.000000 0.000000                 
; 459121.088210724
SUB_076          CALIBRATION      41601            0.000100 0.000000 500.000000 1.000000 0.000000                 
; 311583.568360076
SUB_077          CALIBRATION      41326            0.000100 0.000000 500.000000 1.000000 0.000000                 
; 477408.272828755
SUB_078          CALIBRATION      41776            0.000100 0.000000 500.000000 1.000000 0.000000                 
; 934265.231846404
SUB_079          CALIBRATION      41325            0.000100 0.000000 500.000000 1.000000 0.000000                 
; 475678.499980534
SUB_080          CALIBRATION      41442            0.000100 0.000000 500.000000 1.000000 0.000000                 
; 217074.658386878
SUB_081          CALIBRATION      41505            0.000100 0.000000 500.000000 1.000000 0.000000                 
; 351193.803773184
SUB_082          CALIBRATION      41359            0.000100 0.000000 500.000000 1.000000 0.000000                 
; 547170.602784269
SUB_083          CALIBRATION      41312            0.000100 0.000000 500.000000 1.000000 0.000000                 
; 1085670.84385075
SUB_084          CALIBRATION      41271            0.000100 0.000000 500.000000 1.000000 0.000000                 
; 1047249.63674937
SUB_085          CALIBRATION      41361            0.000100 0.000000 500.000000 1.000000 0.000000                 
; 290487.692600514
SUB_086          CALIBRATION      41490            0.000100 0.000000 500.000000 1.000000 0.000000                 
; 494262.727898701
SUB_087          CALIBRATION      41598            0.000100 0.000000 500.000000 1.000000 0.000000                 
; 1225087.89091872
SUB_088          CALIBRATION      41342            0.000100 0.000000 500.000000 1.000000 0.000000                 
; 606580.648172277
SUB_089          CALIBRATION      41289            0.000100 0.000000 500.000000 1.000000 0.000000                 
; 206313.162514192
SUB_090          CALIBRATION      41267            0.000100 0.000000 500.000000 1.000000 0.000000                 
; 551810.047698662
SUB_091          CALIBRATION      41719            0.000100 0.000000 500.000000 1.000000 0.000000                 
; 1052741.8988943
SUB_092          CALIBRATION      41732            0.000100 0.000000 500.000000 1.000000 0.000000                 
; 425781.255159046
SUB_093          CALIBRATION      41640            0.000100 0.000000 500.000000 1.000000 0.000000                 
; 859774.808670597
SUB_094          CALIBRATION      41675            0.000100 0.000000 500.000000 1.000000 0.000000                 
; 576199.394258084
SUB_095          CALIBRATION      41643            0.000100 0.000000 500.000000 1.000000 0.000000                 
; 266630.926094936
SUB_096          CALIBRATION      41627            0.000100 0.000000 500.000000 1.000000 0.000000                 
; 384637.570812013
SUB_097          CALIBRATION      41467            0.000100 0.000000 500.000000 1.000000 0.000000                 
; 684392.578976692
SUB_098          CALIBRATION      41384            0.000100 0.000000 500.000000 1.000000 0.000000                 
; 697226.357017398
SUB_099          CALIBRATION      41383            0.000100 0.000000 500.000000 1.000000 0.000000                 
; 533046.609703992
SUB_100          CALIBRATION      41749            0.000100 0.000000 500.000000 1.000000 0.000000                 
; 948158.569236072
SUB_101          CALIBRATION      41404            0.000100 0.000000 500.000000 1.000000 0.000000                 
; 464077.923921291
SUB_102          CALIBRATION      41399            0.000100 0.000000 500.000000 1.000000 0.000000                 
; 168618.401983637
SUB_103          CALIBRATION      41705            0.000100 0.000000 500.000000 1.000000 0.000000                 
; 958870.65565912
SUB_104          CALIBRATION      41615            0.000100 0.000000 500.000000 1.000000 0.000000                 
; 557307.922205399
SUB_105          CALIBRATION      41498            0.000100 0.000000 500.000000 1.000000 0.000000                 
; 642168.659576348
SUB_106          CALIBRATION      41547            0.000100 0.000000 500.000000 1.000000 0.000000                 
; 245295.883791982
SUB_107          CALIBRATION      41479            0.000100 0.000000 500.000000 1.000000 0.000000                 
; 158121.295205538
SUB_108          CALIBRATION      41811            0.000100 0.000000 500.000000 1.000000 0.000000                 
; 406388.167463596
SUB_109          CALIBRATION      41735            0.000100 0.000000 500.000000 1.000000 0.000000                 
; 170521.770176365
SUB_110          CALIBRATION      41686            0.000100 0.000000 500.000000 1.000000 0.000000                 
; 367999.610264776
SUB_111          CALIBRATION      41820            0.000100 0.000000 500.000000 1.000000 0.000000                 
; 366235.466086997
SUB_112          CALIBRATION      41408            0.000100 0.000000 500.000000 1.000000 0.000000                 
; 375168.828641848
SUB_113          CALIBRATION      41411            0.000100 0.000000 500.000000 1.000000 0.000000                 
; 439133.279647009
SUB_114          CALIBRATION      41499            0.000100 0.000000 500.000000 1.000000 0.000000                 
; 185066.758982233
SUB_115          CALIBRATION      41461            0.000100 0.000000 500.000000 1.000000 0.000000                 
; 331186.429141582
SUB_116          CALIBRATION      41748            0.000100 0.000000 500.000000 1.000000 0.000000                 
; 99180.1878577978
SUB_117          CALIBRATION      41323            0.000100 0.000000 500.000000 1.000000 0.000000                 
; 220002.837218707
SUB_118          CALIBRATION      41281            0.000100 0.000000 500.000000 1.000000 0.000000                 
; 224167.650964231
SUB_119          CALIBRATION      41642            0.000100 0.000000 500.000000 1.000000 0.000000                 
; 60404.2069967295
SUB_120          CALIBRATION      41635            0.000100 0.000000 500.000000 1.000000 0.000000                 
; 333010.442233866
SUB_121          CALIBRATION      41501            0.000100 0.000000 500.000000 1.000000 0.000000                 
; 117222.613320189
SUB_122          CALIBRATION      41638            0.000100 0.000000 500.000000 1.000000 0.000000                 
; 223466.915514659
SUB_123          CALIBRATION      41761            0.000100 0.000000 500.000000 1.000000 0.000000                 
; 365535.147993198
SUB_124          CALIBRATION      41410            0.000100 0.000000 500.000000 1.000000 0.000000                 
; 175444.201209824
SUB_125          CALIBRATION      41410            0.000100 0.000000 500.000000 1.000000 0.000000                 
; 318387.186151287
SUB_126          CALIBRATION      41492            0.000100 0.000000 500.000000 1.000000 0.000000                 
; 211075.38180923
SUB_127          CALIBRATION      41661            0.000100 0.000000 500.000000 1.000000 0.000000                 
; 260426.753112232
SUB_128          CALIBRATION      37510            0.000100 0.000000 500.000000 1.000000 0.000000                 
; 153069.732008853
SUB_129          CALIBRATION      41790            0.000100 0.000000 500.000000 1.000000 0.000000                 
; 126733.756607603
SUB_130          CALIBRATION      41386            0.000100 0.000000 500.000000 1.000000 0.000000                 
; 101003.74949517
SUB_131          CALIBRATION      41393            0.000100 0.000000 500.000000 1.000000 0.000000                 
; 150560.995720736
SUB_132          CALIBRATION      41465            0.000100 0.000000 500.000000 1.000000 0.000000                 
; 96801.0098954893
SUB_133          CALIBRATION      41396            0.000100 0.000000 500.000000 1.000000 0.000000                 
; 70847.3589009601
SUB_134          CALIBRATION      41459            0.000100 0.000000 500.000000 1.000000 0.000000                 
; 79331.3047571742
SUB_135          CALIBRATION      41534            0.000100 0.000000 500.000000 1.000000 0.000000                 
; 166811.336113903
SUB_136          CALIBRATION      41579            0.000100 0.000000 500.000000 1.000000 0.000000                 
; 283407.473239618
SUB_137          CALIBRATION      41590            0.000100 0.000000 500.000000 1.000000 0.000000                 
; 84433.5135681238
SUB_138          CALIBRATION      41580            0.000100 0.000000 500.000000 1.000000 0.000000                 
; 151576.713711191
SUB_139          CALIBRATION      JCT-40           0.000100 0.000000 500.000000 1.000000 0.000000                 
; 57268.7203152719
SUB_140          CALIBRATION      41398            0.000100 0.000000 500.000000 1.000000 0.000000                 
; 46735.4346827729
SUB_141          CALIBRATION      41589            0.000100 0.000000 500.000000 1.000000 0.000000                 
; 267752.698725761
SUB_142          CALIBRATION      41581            0.000100 0.000000 500.000000 1.000000 0.000000                 

[SUBAREAS]
;;Subcatchment   N-Imperv   N-Perv     S-Imperv   S-Perv     PctZero    RouteTo    PctRouted 
;;-------------- ---------- ---------- ---------- ---------- ---------- ---------- ----------
SUB_001          0.100000   0.001000   0.050000   0.050000   25.000000  OUTLET    
SUB_002          0.100000   0.001000   0.050000   0.050000   25.000000  OUTLET    
SUB_003          0.100000   0.001000   0.050000   0.050000   25.000000  OUTLET    
SUB_004          0.100000   0.001000   0.050000   0.050000   25.000000  OUTLET    
SUB_005          0.100000   0.001000   0.050000   0.050000   25.000000  OUTLET    
SUB_006          0.100000   0.001000   0.050000   0.050000   25.000000  OUTLET    
SUB_007          0.100000   0.001000   0.050000   0.050000   25.000000  OUTLET    
SUB_008          0.100000   0.001000   0.050000   0.050000   25.000000  OUTLET    
SUB_009          0.100000   0.001000   0.050000   0.050000   25.000000  OUTLET    
SUB_011          0.100000   0.001000   0.050000   0.050000   25.000000  OUTLET    
SUB_012          0.100000   0.001000   0.050000   0.050000   25.000000  OUTLET    
SUB_013          0.100000   0.001000   0.050000   0.050000   25.000000  OUTLET    
SUB_014          0.100000   0.001000   0.050000   0.050000   25.000000  OUTLET    
SUB_015          0.100000   0.001000   0.050000   0.050000   25.000000  OUTLET    
SUB_016          0.100000   0.001000   0.050000   0.050000   25.000000  OUTLET    
SUB_017          0.100000   0.001000   0.050000   0.050000   25.000000  OUTLET    
SUB_018          0.100000   0.001000   0.050000   0.050000   25.000000  OUTLET    
SUB_020          0.100000   0.001000   0.050000   0.050000   25.000000  OUTLET    
SUB_021          0.100000   0.001000   0.050000   0.050000   25.000000  OUTLET    
SUB_022          0.100000   0.001000   0.050000   0.050000   25.000000  OUTLET    
SUB_023          0.100000   0.001000   0.050000   0.050000   25.000000  OUTLET    
SUB_024          0.100000   0.001000   0.050000   0.050000   25.000000  OUTLET    
SUB_025          0.100000   0.001000   0.050000   0.050000   25.000000  OUTLET    
SUB_026          0.100000   0.001000   0.050000   0.050000   25.000000  OUTLET    
SUB_027          0.100000   0.001000   0.050000   0.050000   25.000000  OUTLET    
SUB_028          0.100000   0.001000   0.050000   0.050000   25.000000  OUTLET    
SUB_029          0.100000   0.001000   0.050000   0.050000   25.000000  OUTLET    
SUB_030          0.100000   0.001000   0.050000   0.050000   25.000000  OUTLET    
SUB_031          0.100000   0.001000   0.050000   0.050000   25.000000  OUTLET    
SUB_032          0.100000   0.001000   0.050000   0.050000   25.000000  OUTLET    
SUB_033          0.100000   0.001000   0.050000   0.050000   25.000000  OUTLET    
SUB_034          0.100000   0.001000   0.050000   0.050000   25.000000  OUTLET    
SUB_035          0.100000   0.001000   0.050000   0.050000   25.000000  OUTLET    
SUB_036          0.100000   0.001000   0.050000   0.050000   25.000000  OUTLET    
SUB_037          0.100000   0.001000   0.050000   0.050000   25.000000  OUTLET    
SUB_038          0.100000   0.001000   0.050000   0.050000   25.000000  OUTLET    
SUB_039          0.100000   0.001000   0.050000   0.050000   25.000000  OUTLET    
SUB_040          0.100000   0.001000   0.050000   0.050000   25.000000  OUTLET    
SUB_041          0.100000   0.001000   0.050000   0.050000   25.000000  OUTLET    
SUB_042          0.100000   0.001000   0.050000   0.050000   25.000000  OUTLET    
SUB_043          0.100000   0.001000   0.050000   0.050000   25.000000  OUTLET    
SUB_044          0.100000   0.001000   0.050000   0.050000   25.000000  OUTLET    
SUB_045          0.100000   0.001000   0.050000   0.050000   25.000000  OUTLET    
SUB_046          0.100000   0.001000   0.050000   0.050000   25.000000  OUTLET    
SUB_047          0.100000   0.001000   0.050000   0.050000   25.000000  OUTLET    
SUB_048          0.100000   0.001000   0.050000   0.050000   25.000000  OUTLET    
SUB_049          0.100000   0.001000   0.050000   0.050000   25.000000  OUTLET    
SUB_050          0.100000   0.001000   0.050000   0.050000   25.000000  OUTLET    
SUB_051          0.100000   0.001000   0.050000   0.050000   25.000000  OUTLET    
SUB_052          0.100000   0.001000   0.050000   0.050000   25.000000  OUTLET    
SUB_053          0.100000   0.001000   0.050000   0.050000   25.000000  OUTLET    
SUB_054          0.100000   0.001000   0.050000   0.050000   25.000000  OUTLET    
SUB_055          0.100000   0.001000   0.050000   0.050000   25.000000  OUTLET    
SUB_056          0.100000   0.001000   0.050000   0.050000   25.000000  OUTLET    
SUB_057          0.100000   0.001000   0.050000   0.050000   25.000000  OUTLET    
SUB_058          0.100000   0.001000   0.050000   0.050000   25.000000  OUTLET    
SUB_059          0.100000   0.001000   0.050000   0.050000   25.000000  OUTLET    
SUB_060          0.100000   0.001000   0.050000   0.050000   25.000000  OUTLET    
SUB_061          0.100000   0.001000   0.050000   0.050000   25.000000  OUTLET    
SUB_062          0.100000   0.001000   0.050000   0.050000   25.000000  OUTLET    
SUB_063          0.100000   0.001000   0.050000   0.050000   25.000000  OUTLET    
SUB_064          0.100000   0.001000   0.050000   0.050000   25.000000  OUTLET    
SUB_065          0.100000   0.001000   0.050000   0.050000   25.000000  OUTLET    
SUB_066          0.100000   0.001000   0.050000   0.050000   25.000000  OUTLET    
SUB_067          0.100000   0.001000   0.050000   0.050000   25.000000  OUTLET    
SUB_068          0.100000   0.001000   0.050000   0.050000   25.000000  OUTLET    
SUB_069          0.100000   0.001000   0.050000   0.050000   25.000000  OUTLET    
SUB_070          0.100000   0.001000   0.050000   0.050000   25.000000  OUTLET    
SUB_071          0.100000   0.001000   0.050000   0.050000   25.000000  OUTLET    
SUB_072          0.100000   0.001000   0.050000   0.050000   25.000000  OUTLET    
SUB_073          0.100000   0.001000   0.050000   0.050000   25.000000  OUTLET    
SUB_074          0.100000   0.001000   0.050000   0.050000   25.000000  OUTLET    
SUB_075          0.100000   0.001000   0.050000   0.050000   25.000000  OUTLET    
SUB_076          0.100000   0.001000   0.050000   0.050000   25.000000  OUTLET    
SUB_077          0.100000   0.001000   0.050000   0.050000   25.000000  OUTLET    
SUB_078          0.100000   0.001000   0.050000   0.050000   25.000000  OUTLET    
SUB_079          0.100000   0.001000   0.050000   0.050000   25.000000  OUTLET    
SUB_080          0.100000   0.001000   0.050000   0.050000   25.000000  OUTLET    
SUB_081          0.100000   0.001000   0.050000   0.050000   25.000000  OUTLET    
SUB_082          0.100000   0.001000   0.050000   0.050000   25.000000  OUTLET    
SUB_083          0.100000   0.001000   0.050000   0.050000   25.000000  OUTLET    
SUB_084          0.100000   0.001000   0.050000   0.050000   25.000000  OUTLET    
SUB_085          0.100000   0.001000   0.050000   0.050000   25.000000  OUTLET    
SUB_086          0.100000   0.001000   0.050000   0.050000   25.000000  OUTLET    
SUB_087          0.100000   0.001000   0.050000   0.050000   25.000000  OUTLET    
SUB_088          0.100000   0.001000   0.050000   0.050000   25.000000  OUTLET    
SUB_089          0.100000   0.001000   0.050000   0.050000   25.000000  OUTLET    
SUB_090          0.100000   0.001000   0.050000   0.050000   25.000000  OUTLET    
SUB_091          0.100000   0.001000   0.050000   0.050000   25.000000  OUTLET    
SUB_092          0.100000   0.001000   0.050000   0.050000   25.000000  OUTLET    
SUB_093          0.100000   0.001000   0.050000   0.050000   25.000000  OUTLET    
SUB_094          0.100000   0.001000   0.050000   0.050000   25.000000  OUTLET    
SUB_095          0.100000   0.001000   0.050000   0.050000   25.000000  OUTLET    
SUB_096          0.100000   0.001000   0.050000   0.050000   25.000000  OUTLET    
SUB_097          0.100000   0.001000   0.050000   0.050000   25.000000  OUTLET    
SUB_098          0.100000   0.001000   0.050000   0.050000   25.000000  OUTLET    
SUB_099          0.100000   0.001000   0.050000   0.050000   25.000000  OUTLET    
SUB_100          0.100000   0.001000   0.050000   0.050000   25.000000  OUTLET    
SUB_101          0.100000   0.001000   0.050000   0.050000   25.000000  OUTLET    
SUB_102          0.100000   0.001000   0.050000   0.050000   25.000000  OUTLET    
SUB_103          0.100000   0.001000   0.050000   0.050000   25.000000  OUTLET    
SUB_104          0.100000   0.001000   0.050000   0.050000   25.000000  OUTLET    
SUB_105          0.100000   0.001000   0.050000   0.050000   25.000000  OUTLET    
SUB_106          0.100000   0.001000   0.050000   0.050000   25.000000  OUTLET    
SUB_107          0.100000   0.001000   0.050000   0.050000   25.000000  OUTLET    
SUB_108          0.100000   0.001000   0.050000   0.050000   25.000000  OUTLET    
SUB_109          0.100000   0.001000   0.050000   0.050000   25.000000  OUTLET    
SUB_110          0.100000   0.001000   0.050000   0.050000   25.000000  OUTLET    
SUB_111          0.100000   0.001000   0.050000   0.050000   25.000000  OUTLET    
SUB_112          0.100000   0.001000   0.050000   0.050000   25.000000  OUTLET    
SUB_113          0.100000   0.001000   0.050000   0.050000   25.000000  OUTLET    
SUB_114          0.100000   0.001000   0.050000   0.050000   25.000000  OUTLET    