[TITLE]
;;Project Title/Notes
Bustarviejo
Situación actual
Hipótesis 2: Caudal máximo.
(Aguas residuales con
caudales punta + Lluvias con
Hietograma de diseño para T=2,5 ó 10 años y
Tc=50 min.con intervalos cada 5 minutos)

[OPTIONS]
;;Option             Value
FLOW_UNITS           CMS
INFILTRATION         CURVE_NUMBER
FLOW_ROUTING         DYNWAVE
LINK_OFFSETS         DEPTH
MIN_SLOPE            0
ALLOW_PONDING        NO
SKIP_STEADY_STATE    NO

START_DATE           05/01/2013
START_TIME           00:00:00
REPORT_START_DATE    05/01/2013
REPORT_START_TIME    00:00:00
END_DATE             05/01/2013
END_TIME             06:00:00
SWEEP_START          01/01
SWEEP_END            12/31
DRY_DAYS             5
REPORT_STEP          00:00:30
WET_STEP             00:00:30
DRY_STEP             00:00:30
ROUTING_STEP         0:00:05 

INERTIAL_DAMPING     PARTIAL
NORMAL_FLOW_LIMITED  BOTH
FORCE_MAIN_EQUATION  D-W
VARIABLE_STEP        0.75
LENGTHENING_STEP     0
MIN_SURFAREA         0
MAX_TRIALS           0
HEAD_TOLERANCE       0
SYS_FLOW_TOL         5
LAT_FLOW_TOL         5
MINIMUM_STEP         0.5
THREADS              1

[EVAPORATION]
;;Data Source    Parameters
;;-------------- ----------------
CONSTANT         0.0
DRY_ONLY         NO

[RAINGAGES]
;;Name           Format    Interval SCF      Source    
;;-------------- --------- ------ ------ ----------
PLUVIOMETRO      INTENSITY 0:05     1.0      TIMESERIES ST(10a)(50MIN)  

[SUBCATCHMENTS]
;;Name           Rain Gage        Outlet           Area     %Imperv  Width    %Slope   CurbLen  SnowPack        
;;-------------- ---------------- ---------------- -------- -------- -------- -------- -------- ----------------
PV1              PLUVIOMETRO      DR1              0.10456  80       2        0.5      0                        
PV2              PLUVIOMETRO      P.24LM-69        0.10672  80       2        0.5      0                        
PV3              PLUVIOMETRO      P.24LM-56        0.16605  25       2        0.5      0                        
PV4              PLUVIOMETRO      P.24LM-92        0.14840  80       2        0.5      0                        
PV5              PLUVIOMETRO      P.24LM-128       0.14007  60       2        0.5      0                        
PV6              PLUVIOMETRO      P.24LM-24        0.09708  80       2        0.5      0                        
PV7              PLUVIOMETRO      VV1              0.21123  60       5        0.5      0                        
PV8              PLUVIOMETRO      VV8              0.05919  50       2        0.5      0                        
PV9              PLUVIOMETRO      P.24LM-131       0.04883  80       2        0.5      0                        
PV10             PLUVIOMETRO      P.24LM-91        0.38026  40       10       0.5      0                        
PV11             PLUVIOMETRO      P.24LM-115       0.06048  90       2        0.5      0                        
PV12             PLUVIOMETRO      P.24LM-67        0.09034  50       2        0.5      0                        
PV13             PLUVIOMETRO      P.24LM-34        0.07000  50       2        0.5      0                        
PV14             PLUVIOMETRO      DR2              0.34946  15       10       20       0                        
PV15             PLUVIOMETRO      DR3              0.14345  60       2        0.5      0                        
PV16             PLUVIOMETRO      P.24LM-23        0.08594  60       2        0.5      0                        
PV17             PLUVIOMETRO      VV25             0.13111  80       2        0.5      0                        
PV18             PLUVIOMETRO      P.24LM-120       0.18476  50       2        0.5      0                        
PV19             PLUVIOMETRO      P.24LM-107       0.06496  90       2        0.5      0                        
PV20             PLUVIOMETRO      P.24LM-55        0.06271  80       2        0.5      0                        
PV21             PLUVIOMETRO      P.24LM-73        0.03186  90       2        0.5      0                        
PV22             PLUVIOMETRO      P.24LM-105       0.05511  90       2        0.5      0                        
PV23             PLUVIOMETRO      P.24LM-66        0.03894  90       2        0.5      0                        
PV24             PLUVIOMETRO      P.24LM-40        0.08305  80       2        0.5      0                        
PV25             PLUVIOMETRO      P.24LM-33        0.02720  80       2        0.5      0                        
PV26             PLUVIOMETRO      P.24LM-21        0.08416  80       2        0.5      0                        
PV27             PLUVIOMETRO      P.24LM-112       0.08037  60       2        0.5      0                        
PV28             PLUVIOMETRO      58811            0.31581  25       10       0.5      0                        
PV29             PLUVIOMETRO      P.24LM-15        0.43872  40       10       0.5      0                        
PV30             PLUVIOMETRO      P.24LM-114       0.07886  50       2        0.5      0                        
PV31             PLUVIOMETRO      P.24LM-113       0.08520  30       5        13       0                        
PV32             PLUVIOMETRO      VV30             0.09538  50       2        0.5      0                        
PV33             PLUVIOMETRO      DR4              0.07227  50       2        0.5      0                        
PV34             PLUVIOMETRO      DR4              0.02506  50       2        0.5      0                        
PV35             PLUVIOMETRO      P.24LM-120       0.05229  90       2        0.5      0                        
PV36             PLUVIOMETRO      P.24LM-84        0.03113  80       2        0.5      0                        
PV37             PLUVIOMETRO      P.24LL-36        0.05878  50       2        0.5      0                        
PV38             PLUVIOMETRO      P.24LM-45        0.06394  90       2        0.5      0                        
PV39             PLUVIOMETRO      P.24LL-7         0.32505  80       10       0.5      0                        
PV40             PLUVIOMETRO      DR1              0.61426  50       10       0.5      0                        
PV41             PLUVIOMETRO      VV35             1.06635  20       10       13       0                        
PV42             PLUVIOMETRO      VV35             0.50052  15       10       10       0                        
PV43             PLUVIOMETRO      VV34             0.96768  10       10       10       0                        
PV44             PLUVIOMETRO      VV34             0.34946  5        10       12       0                        
PV45             PLUVIOMETRO      VV35             0.98862  15       10       14       0                        
PV46             PLUVIOMETRO      VV35             0.48848  15       10       17       0                        
PV47             PLUVIOMETRO      VV34             0.70651  5        10       14       0                        
PV48             PLUVIOMETRO      VV34             0.20045  10       10       12       0                        
PV49             PLUVIOMETRO      DR5              0.39944  10       10       13       0                        
PV50             PLUVIOMETRO      DR5              0.24253  0        10       13       0                        
PV51             PLUVIOMETRO      PV49             0.26373  5        10       13       0                        
PV52             PLUVIOMETRO      PV50             0.53447  5        10       14       0                        
PV53             PLUVIOMETRO      DR5              0.20211  0        20       12       0                        
PV54             PLUVIOMETRO      VV34             0.73891  25       10       11       0                        
PV55             PLUVIOMETRO      VV34             0.48119  20       10       11       0                        
PV56             PLUVIOMETRO      VV51             0.25822  20       5        12       0                        
PV57             PLUVIOMETRO      VV34             0.32513  15       10       12       0                        
PV58             PLUVIOMETRO      VV34             0.39822  25       10       9        0                        
PV59             PLUVIOMETRO      VV52             0.05808  30       5        9        0                        
PV60             PLUVIOMETRO      PV85             0.54517  5        10       9        0                        
PV61             PLUVIOMETRO      VV34             1.83119  20       10       9        0                        
PV62             PLUVIOMETRO      P.24ML-236       1.18003  20       10       11       0                        
PV63             PLUVIOMETRO      VV38             0.88327  20       10       10       0                        
PV64             PLUVIOMETRO      PV69             0.14529  40       2        11       0                        
PV65             PLUVIOMETRO      PV69             0.31478  15       10       20       0                        
PV66             PLUVIOMETRO      PV69             0.38196  30       10       20       0                        
PV67             PLUVIOMETRO      DR6              0.46496  30       10       20       0                        
PV68             PLUVIOMETRO      P.24ML-285       0.17632  30       2        12       0                        
PV69             PLUVIOMETRO      DR6              0.95579  0        10       25       0                        
PV70             PLUVIOMETRO      PV71             1.20474  20       2        0.5      0                        
PV71             PLUVIOMETRO      P.24ML-238       0.85636  40       2        0.5      0                        
PV72             PLUVIOMETRO      VV49             1.22388  0        20       10       0                        
PV73             PLUVIOMETRO      P.24ML-197       1.44716  30       2        0.5      0                        
PV74A            PLUVIOMETRO      P.24ML-246       0.29347  50       2        0.5      0                        
PV74B            PLUVIOMETRO      P.24ML-267       0.82516  30       2        0.5      0                        
PV75             PLUVIOMETRO      P.24ML-48        0.34192  30       10       10       0                        
PV76             PLUVIOMETRO      P.24ML-122       0.50434  50       2        0.5      0                        
PV77             PLUVIOMETRO      P.24ML-23        0.67696  30       2        0.5      0                        
PV78             PLUVIOMETRO      AUX-1            0.40360  30       2        0.5      0                        
PV79             PLUVIOMETRO      P1               0.42963  30       2        0.5      0                        
PV80             PLUVIOMETRO      P.24ML-138       0.35708  30       2        0.5      0                        
PV81             PLUVIOMETRO      P.24NL-16        0.42799  30       2        0.5      0                        
PV82             PLUVIOMETRO      VV38             0.21641  10       10       12       0                        
PV83             PLUVIOMETRO      VV39             1.68329  2        30       9        0                        
PV84             PLUVIOMETRO      P.24ML-232       0.43947  10       10       9        0                        
PV85             PLUVIOMETRO      VV40             1.24312  10       10       11       0                        
PV86             PLUVIOMETRO      P.24ML-237       1.03346  20       10       13       0                        
PV87             PLUVIOMETRO      VV40             0.73235  5        10       13       0                        
PV88             PLUVIOMETRO      DR8              0.95406  15       10       9        0                        
PV89             PLUVIOMETRO      DR8              1.29306  0        10       19       0                        
PV90             PLUVIOMETRO      VV42             0.39866  10       10       9        0                        
PV91             PLUVIOMETRO      DR9              0.47140  50       10       10       0                        
PV92             PLUVIOMETRO      P.24LL-18        0.06695  50       2        0.5      0                        
PV93             PLUVIOMETRO      P.24LL-36        0.22225  25       5        14       0                        
PV94             PLUVIOMETRO      P.24ML-78        0.29224  50       2        0.5      0                        
PV95             PLUVIOMETRO      P.24LM-43        0.78904  20       10       0.5      0                        
PV96             PLUVIOMETRO      VV33             0.06574  50       2        0.5      0                        
PV97             PLUVIOMETRO      VV33             0.02453  80       2        0.5      0                        
PV98             PLUVIOMETRO      VV18             0.13513  60       2        0.5      0                        
PV99             PLUVIOMETRO      P.24LL-25        0.25209  10       10       14       0                        
PV100            PLUVIOMETRO      VV23             0.12828  50       2        0.5      0                        
PV101            PLUVIOMETRO      P.24LM-121       0.21961  30       10       14       0                        
PV102            PLUVIOMETRO      PV103            0.25400  30       10       14       0                        
PV103            PLUVIOMETRO      P.24LM-45        0.09557  20       2        14       0                        
PV104            PLUVIOMETRO      VV49             0.30269  30       10       10       0                        
PV105            PLUVIOMETRO      P.24ML-250       0.94307  40       2        0.5      0                        
PV106            PLUVIOMETRO      VV12             2.24719  0        30       30       0                        
PV107            PLUVIOMETRO      VV10             0.05664  0        20       20       0                        
PB1              PLUVIOMETRO      P.24NJ-375       0.39397  10       10       7        0                        
PB2              PLUVIOMETRO      P.24NJ-74        0.22439  20       5        16       0                        
PB3              PLUVIOMETRO      P.24NJ-201       0.10054  80       2        0.5      0                        
PB4              PLUVIOMETRO      P.24NJ-143       0.10944  80       2        0.5      0                        
PB5              PLUVIOMETRO      P.24NJ-53        0.12593  80       2        0.5      0                        
PB6              PLUVIOMETRO      P.24NJ-403       0.09319  80       2        0.5      0                        
PB7              PLUVIOMETRO      P.24NJ-364       0.08372  80       2        0.5      0                        
PB8              PLUVIOMETRO      P.24NJ-247       0.06545  80       2        0.5      0                        
PB9              PLUVIOMETRO      P.24NJ-235       0.36518  30       10       10       0                        
PB10             PLUVIOMETRO      P.24NJ-208       0.20908  40       5        12       0                        
PB11             PLUVIOMETRO      P.24NJ-429       1.13761  20       10       20       0                        
PB12             PLUVIOMETRO      VB163            0.70573  20       10       10       0                        
PB13             PLUVIOMETRO      VB53             0.20574  20       5        25       0                        
PB14             PLUVIOMETRO      PB32             1.57995  0        30       50       0                        
PB15             PLUVIOMETRO      PB33             1.25656  0        30       50       0                        
PB16             PLUVIOMETRO      PB34             0.58325  0        20       50       0                        
PB17             PLUVIOMETRO      P.24NJ-211       0.35461  60       5        0.5      0                        
PB18             PLUVIOMETRO      VB165            0.24262  15       10       8        0                        
PB19             PLUVIOMETRO      2753             0.18187  70       2        9        0                        
PB20             PLUVIOMETRO      38890            0.30666  50       5        12       0                        
PB21             PLUVIOMETRO      P.24NI-2         0.73487  30       10       16       0                        
PB22             PLUVIOMETRO      P.24NI-50        0.37285  30       10       14       0                        
PB23             PLUVIOMETRO      P.24NI-24        0.21942  50       5        11       0                        
PB24             PLUVIOMETRO      P.24NJ-122       0.09365  50       2        0.5      0                        
PB25             PLUVIOMETRO      P.24NJ-244       0.26795  60       5        0.5      0                        
PB26             PLUVIOMETRO      P.24NI-45        0.56648  20       10       13       0                        
PB27             PLUVIOMETRO      39046            0.27708  50       5        0.5      0                        
PB28             PLUVIOMETRO      P.24NJ-417       1.01713  20       20       6        0                        
PB29             PLUVIOMETRO      P.24NI-38        0.32599  30       10       6        0                        
PB30             PLUVIOMETRO      PB42             1.46772  0        30       50       0                        
PB31             PLUVIOMETRO      VB52             1.19816  15       5        16       0                        
PB32             PLUVIOMETRO      VB18             0.52830  10       10       20       0                        
PB33             PLUVIOMETRO      VB52             0.46349  15       10       16       0                        
PB34             PLUVIOMETRO      VB53             0.41754  10       10       20       0                        
PB35             PLUVIOMETRO      PB41             1.95185  0        20       50       0                        
PB36             PLUVIOMETRO      PB11             2.27858  0        30       50       0                        
PB37A            PLUVIOMETRO      PB11             0.85939  0        20       36       0                        
PB37B            PLUVIOMETRO      P.24NJ-251       0.99925  5        20       33       0                        
PB37C            PLUVIOMETRO      PB258            1.60947  0        60       30       0                        
PB37D            PLUVIOMETRO      P.24NJ-381       1.35892  10       30       25       0                        
PB38             PLUVIOMETRO      EBAR_STA_MARIA   2.67907  20       5        0.5      0                        
PB39             PLUVIOMETRO      PB9              0.41993  15       10       16       0                        
PB40             PLUVIOMETRO      P.24NI-53        0.62575  10       10       20       0                        
PB41             PLUVIOMETRO      VB53             0.50997  20       10       25       0                        
PB42             PLUVIOMETRO      P.24NI-26        0.34984  10       10       40       0                        
PB43             PLUVIOMETRO      VB55             0.55563  40       10       15       0                        
PB44             PLUVIOMETRO      PB31             2.46310  0        30       50       0                        
PB45             PLUVIOMETRO      P.24NI-43        0.25128  30       5        8        0                        
PB46             PLUVIOMETRO      PB48             0.30557  30       10       10       0                        
PB47             PLUVIOMETRO      PB49             0.32061  20       10       10       0                        
PB48             PLUVIOMETRO      VB20             0.52522  40       10       9        0                        
PB49             PLUVIOMETRO      P.24NJ-37        0.36692  50       10       11       0                        
PB50             PLUVIOMETRO      VB50             0.26485  60       5        10       0                        
PB51             PLUVIOMETRO      VB58             0.15464  50       2        10       0                        
PB52             PLUVIOMETRO      PB51             0.18211  60       2        10       0                        
PB53             PLUVIOMETRO      VB62             0.29007  40       5        12       0                        
PB54             PLUVIOMETRO      40059            0.82270  20       20       13       0                        
PB55             PLUVIOMETRO      VB56             2.65858  5        30       10       0                        
PB56             PLUVIOMETRO      38985            0.84022  10       10       10       0                        
PB57             PLUVIOMETRO      P.24NJ-282       0.34752  60       5        10       0                        
PB58             PLUVIOMETRO      P.24NJ-109       0.11529  90       2        0.5      0                        
PB59             PLUVIOMETRO      P.24NJ-114       0.12300  90       2        0.5      0                        
PB60             PLUVIOMETRO      P.24NJ-279       0.12497  60       2        0.5      0                        
PB61             PLUVIOMETRO      P.24NJ-91        0.12563  80       2        0.5      0                        
PB62             PLUVIOMETRO      P.24NJ-253       0.12802  50       2        0.5      0                        
PB63             PLUVIOMETRO      38974            0.09467  80       2        0.5      0                        
PB64             PLUVIOMETRO      39030            0.03729  50       2        0.5      0                        
PB65             PLUVIOMETRO      VB27             0.01191  0        10       2        0                        
PB66             PLUVIOMETRO      P.24NJ-99        0.07815  100      2        0.5      0                        
PB67             PLUVIOMETRO      P.24NJ-283       0.25658  80       5        0.5      0                        
PB68             PLUVIOMETRO      P.24NJ-167       0.19141  80       5        0.5      0                        
PB69             PLUVIOMETRO      P.24NJ-379       0.15825  90       2        0.5      0                        
PB70             PLUVIOMETRO      P.24NJ-274       0.08649  90       2        0.5      0                        
PB71             PLUVIOMETRO      P.24NJ-260       0.04917  90       2        0.5      0                        
PB72             PLUVIOMETRO      P.24NJ-92        0.11417  50       2        0.5      0                        
PB73             PLUVIOMETRO      P.24NJ-153       0.05502  80       2        0.5      0                        
PB74             PLUVIOMETRO      P.24NJ-167       0.05755  80       2        0.5      0                        
PB75             PLUVIOMETRO      P.24NJ-18        0.08509  80       2        0.5      0                        
PB76             PLUVIOMETRO      P.24NJ-195       0.05977  70       2        0.5      0                        
PB77             PLUVIOMETRO      38990            0.13232  50       2        0.5      0                        
PB78             PLUVIOMETRO      P.24NJ-290       0.11241  30       2        0.5      0                        
PB79             PLUVIOMETRO      P.24NJ-38        0.16138  60       2        0.5      0                        
PB80             PLUVIOMETRO      P.24NJ-169       0.10116  60       2        0.5      0                        
PB81             PLUVIOMETRO      P.24NJ-64        0.15550  80       2        0.5      0                        
PB82             PLUVIOMETRO      P.24NJ-67        0.20195  60       5        0.5      0                        
PB83             PLUVIOMETRO      P.24NJ-169       0.23660  60       5        0.5      0                        
PB84             PLUVIOMETRO      P.24NJ-386       0.09003  50       2        0.5      0                        
PB85             PLUVIOMETRO      VB90             0.48599  20       10       5        0                        
PB86             PLUVIOMETRO      P.24NJ-267       0.17743  80       2        0.5      0                        
PB87             PLUVIOMETRO      VB90             0.15777  60       2        0.5      0                        
PB88             PLUVIOMETRO      P.24NJ-220       0.07039  90       2        0.5      0                        
PB89             PLUVIOMETRO      P.24NJ-186       0.17840  50       2        0.5      0                        
PB90             PLUVIOMETRO      P.24NJ-93        0.19894  70       5        0.5      0                        
PB91             PLUVIOMETRO      P.24NJ-220       0.19322  40       5        0.5      0                        
PB92             PLUVIOMETRO      P.24NJ-396       0.26301  80       5        0.5      0                        
PB93             PLUVIOMETRO      38906            0.08012  80       2        0.5      0                        
PB94             PLUVIOMETRO      P.24NJ-270       0.29898  80       5        0.5      0                        
PB95             PLUVIOMETRO      P.24NJ-435       0.31384  30       10       5        0                        
PB96             PLUVIOMETRO      P.24NJ-159       0.21587  40       5        5        0                        
PB97             PLUVIOMETRO      P.24NJ-155       0.28421  70       5        0.5      0                        
PB98             PLUVIOMETRO      43027            0.24707  30       2        0.5      0                        
PB99             PLUVIOMETRO      VB72             0.11208  90       2        0.5      0                        
PB100            PLUVIOMETRO      P.24NJ-67        0.15855  80       2        0.5      0                        
PB101            PLUVIOMETRO      P.24NJ-413       0.16827  40       2        0.5      0                        
PB102            PLUVIOMETRO      P.24NJ-372       0.24442  30       2        0.5      0                        
PB103            PLUVIOMETRO      43106            0.32222  30       2        0.5      0                        
PB104            PLUVIOMETRO      43071            0.12184  60       2        0.5      0                        
PB105            PLUVIOMETRO      P.24NJ-98        0.08462  50       2        0.5      0                        
PB106            PLUVIOMETRO      P.24NJ-391       0.15126  50       2        0.5      0                        
PB107            PLUVIOMETRO      P.24NJ-151       0.19586  60       5        0.5      0                        
PB108            PLUVIOMETRO      P.24NJ-294       0.48798  20       10       7        0                        
PB109            PLUVIOMETRO      P.24NJ-25        0.25242  50       5        0.5      0                        
PB110            PLUVIOMETRO      P.24NJ-400       0.23617  50       5        0.5      0                        
PB111            PLUVIOMETRO      P.24NJ-101       0.47798  60       5        0.5      0                        
PB112            PLUVIOMETRO      P.24NJ-302       0.23537  60       5        0.5      0                        
PB113            PLUVIOMETRO      P.24NJ-46        0.22263  60       5        0.5      0                        
PB114            PLUVIOMETRO      P.24MJ-154       0.33222  20       2        0.5      0                        
PB115            PLUVIOMETRO      P.24NJ-47        0.27265  20       5        7        0                        
PB116            PLUVIOMETRO      P.24NJ-390       0.17493  15       5        7        0                        
PB117            PLUVIOMETRO      P.24MJ-18        2.01096  10       20       9        0                        
PB118A           PLUVIOMETRO      P.24MJ-117       0.60203  50       5        0.5      0                        
PB118B           PLUVIOMETRO      P.24MJ-92        0.59883  50       5        0.5      0                        
PB119A           PLUVIOMETRO      P.24MJ-11        0.63839  30       5        0.5      0                        
PB119B           PLUVIOMETRO      P.24MJ-129       0.61152  30       5        0.5      0                        
PB120            PLUVIOMETRO      P.24MJ-132       0.62843  40       5        0.5      0                        
PB121            PLUVIOMETRO      P.24NJ-419       0.71912  30       10       0.5      0                        
PB122            PLUVIOMETRO      P.24NJ-207       0.97092  15       10       0.5      0                        
PB123            PLUVIOMETRO      P.24MJ-13        1.10613  10       10       0.5      0                        
PB124            PLUVIOMETRO      P.24MJ-10        0.86132  10       10       12       0                        
PB125            PLUVIOMETRO      P.24MJ-155       0.97720  15       10       10       0                        
PB126            PLUVIOMETRO      P.24MJ-120       0.86500  10       10       12       0                        
PB127            PLUVIOMETRO      P.24MJ-35        0.69799  15       10       12       0                        
PB128            PLUVIOMETRO      P.24MJ-76        0.87826  10       10       13       0                        
PB129            PLUVIOMETRO      P.24MJ-38        1.32242  10       10       15       0                        
PB130            PLUVIOMETRO      P.24MJ-131       0.84803  15       10       16       0                        
PB131            PLUVIOMETRO      P.24MJ-91        0.85396  10       10       14       0                        
PB132            PLUVIOMETRO      P.24MJ-16        0.77095  10       10       10       0                        
PB133            PLUVIOMETRO      P.24MJ-127       0.83261  15       10       18       0                        
PB134            PLUVIOMETRO      P.24MJ-171       1.09413  20       10       14       0                        
PB135            PLUVIOMETRO      P.24MJ-49        1.09018  10       10       8        0                        
PB136            PLUVIOMETRO      P.24NJ-319       0.23783  60       5        0.5      0                        
PB137            PLUVIOMETRO      42958            0.12680  20       2        0.5      0                        