[TITLE]
;;Project Title/Notes
Scenario Run :  BASE

[OPTIONS]
;;Option             Value
FLOW_UNITS           LPS
INFILTRATION         GREEN_AMPT
FLOW_ROUTING         DYNWAVE
LINK_OFFSETS         DEPTH
MIN_SLOPE            0
ALLOW_PONDING        NO
SKIP_STEADY_STATE    NO

START_DATE           01/01/2002
START_TIME           00:00:00
REPORT_START_DATE    01/01/2002
REPORT_START_TIME    00:00:00
END_DATE             01/02/2002
END_TIME             12:00:00
SWEEP_START          01/01
SWEEP_END            12/31
DRY_DAYS             5.000000
REPORT_STEP          00:05:00
WET_STEP             00:05:00
DRY_STEP             01:00:00
ROUTING_STEP         0:00:10 

INERTIAL_DAMPING     NONE
NORMAL_FLOW_LIMITED  BOTH
FORCE_MAIN_EQUATION  H-W
VARIABLE_STEP        0.75
LENGTHENING_STEP     10
MIN_SURFAREA         0
MAX_TRIALS           0
HEAD_TOLERANCE       0
SYS_FLOW_TOL         5
LAT_FLOW_TOL         5
MINIMUM_STEP         0.5
THREADS              1

[EVAPORATION]
;;Data Source    Parameters
;;-------------- ----------------
CONSTANT         1.000000
DRY_ONLY         NO

[RAINGAGES]
;;Name           Format    Interval SCF      Source    
;;-------------- --------- ------ ------ ----------
; mediumbbb
IWAKUNI          VOLUME    0.166667 1.000000 TIMESERIES MEDIUMSTORM     

[SUBCATCHMENTS]
;;Name           Rain Gage        Outlet           Area     %Imperv  Width    %Slope   CurbLen  SnowPack        
;;-------------- ---------------- ---------------- -------- -------- -------- -------- -------- ----------------
; New Subcatchment
S-1              IWAKUNI          IWK-370          1.596035 67.138276 126.334293 0.911000 0.000000                 
; New Subcatchment
S-10             IWAKUNI          IWK-888          2.980523 6.829781 172.641901 4.082738 0.000000                 
S-11             IWAKUNI          IWK-1185         2.417355 0.000000 155.478462 5.803592 0.000000                 
; New Subcatchment
S-111            IWAKUNI          CATCH_BASIN_2502 0.769092 1.200611 87.697877 1.626960 0.000000                 
; New Subcatchment
S-112            IWAKUNI          CATCH_BASIN_2058 1.079261 1.850549 103.887498 1.795562 0.000000                 
; New Subcatchment
S-113            IWAKUNI          CATCH_BASIN_2302 0.371851 32.813304 60.979549 1.716134 0.000000                 
; New Subcatchment
S-114            IWAKUNI          CATCH_BASIN_2278 0.306232 39.184120 55.338206 1.783051 0.000000                 
; New Subcatchment
S-115            IWAKUNI          CATCH_BASIN_2056 0.603737 36.436358 77.700537 1.753788 0.000000                 
; New Subcatchment
S-116            IWAKUNI          CATCH_BASIN_752  0.290544 52.250956 53.902103 1.524715 0.000000                 
; New Subcatchment
S-117            IWAKUNI          MANHOLE_938      0.387444 449.378828 62.245006 1.527561 0.000000                 
; New Subcatchment
S-118            IWAKUNI          CATCH_BASIN_1515 1.150361 151.283623 107.254903 1.523784 0.000000                 
; New Subcatchment
S-119            IWAKUNI          MANHOLE_388      1.518022 48.088552 123.208043 1.681399 0.000000                 
; New Subcatchment
S-12             IWAKUNI          CATCH_BASIN_1236 1.202340 0.576618 109.651258 1.648783 0.000000                 
; New Subcatchment
S-123            IWAKUNI          CATCH_BASIN_7691 3.336448 0.450305 182.659470 2.617034 0.000000                 
; New Subcatchment
S-124            IWAKUNI          IWK-214          2.425408 0.308282 155.737217 2.188184 0.000000                 
; New Subcatchment
S-13             IWAKUNI          MANHOLE_879      0.962263 75.819991 98.094980 1.520150 0.000000                 
S-138            IWAKUNI          IWK-896          2.524044 0.004923 158.872392 2.219948 0.000000                 
S-139            IWAKUNI          SOUTH_POND_B     16.549683 0.000000 406.813018 0.466663 0.000000                 
; New Subcatchment
S-14             IWAKUNI          MANHOLE_115      3.368644 59.241538 183.538667 1.784709 0.000000                 
; New Subcatchment
S-141            IWAKUNI          CATCH_BASIN_7688 3.291589 0.456442 181.427375 2.663763 0.000000                 
S-142            IWAKUNI          CATCH_BASIN_4290 0.993881 2.356867 99.693563 2.113156 0.000000                 
; New Subcatchment
S-143            IWAKUNI          IWK-215          5.324733 0.574760 230.753839 2.147238 0.000000                 
; New Subcatchment
S-144            IWAKUNI          IWK-189          7.279500 0.493183 269.805494 1.079705 0.000000                 
; New Subcatchment
S-145            IWAKUNI          IWK-860          5.683269 1.198605 238.396087 0.980312 0.000000                 
; New Subcatchment
S-146            IWAKUNI          CATCH_BASIN_317  9.433109 36.266565 307.133661 0.983675 0.000000                 
; New Subcatchment
S-147            IWAKUNI          CATCH_BASIN_441  3.300310 45.927896 181.667547 1.247347 0.000000                 
; New Subcatchment
S-148            IWAKUNI          IWK-307          2.344644 0.535973 153.122306 2.211348 0.000000                 
; New Subcatchment
S-149            IWAKUNI          IWK-185          3.354733 0.150735 183.159314 2.043973 0.000000                 
; New Subcatchment
S-15             IWAKUNI          MANHOLE_1        0.735311 2.362670 85.750279 1.815533 0.000000                 
; New Subcatchment
S-150            IWAKUNI          IWK-229          5.032660 1.411484 224.335912 2.009354 0.000000                 
; New Subcatchment
S-151            IWAKUNI          CATCH_BASIN_867  0.860161 0.000000 92.744852 0.051134 0.000000                 
; New Subcatchment
S-152            IWAKUNI          CATCH_BASIN_877  0.907092 0.000000 95.241370 0.310649 0.000000                 
; New Subcatchment
S-153            IWAKUNI          CATCH_BASIN_860  0.853496 0.212978 92.384865 0.148504 0.000000                 
; New Subcatchment
S-154            IWAKUNI          CATCH_BASIN_914  0.866601 0.628580 93.091417 0.068067 0.000000                 
; New Subcatchment
S-155            IWAKUNI          CATCH_BASIN_873  0.851872 0.213384 92.296925 0.074886 0.000000                 
; New Subcatchment
S-156            IWAKUNI          CATCH_BASIN_901  0.829863 1.045549 91.096804 0.055251 0.000000                 
; New Subcatchment
S-157            IWAKUNI          CATCH_BASIN_782  0.746162 1.049932 86.380655 0.127802 0.000000                 
; New Subcatchment
S-158            IWAKUNI          CATCH_BASIN_937  0.695824 0.517372 83.416068 0.098210 0.000000                 
; New Subcatchment
S-159            IWAKUNI          CATCH_BASIN_826  0.727632 0.494755 85.301372 0.082657 0.000000                 
; New Subcatchment
S-16             IWAKUNI          MANHOLE_7        0.600443 13.681362 77.488241 1.818422 0.000000                 
; New Subcatchment
S-160            IWAKUNI          CATCH_BASIN_699  2.345724 20.147517 153.157552 0.619519 0.000000                 
; New Subcatchment
S-161            IWAKUNI          MANHOLE_950      2.528939 46.875059 159.026375 0.345899 0.000000                 
; New Subcatchment
S-162            IWAKUNI          CULVERT_STORAGE_26 5.578262 1.435123 236.183449 1.380288 0.000000                 
; New Subcatchment
S-163            IWAKUNI          IWK-186          3.646429 0.138677 190.956243 2.029957 0.000000                 
; New Subcatchment
S-164            IWAKUNI          CATCH_BASIN_7682 1.019911 1.401293 100.990659 2.421806 0.000000                 
; New Subcatchment
S-165            IWAKUNI          CATCH_BASIN_7684 1.100305 1.333678 104.895406 2.296252 0.000000                 
; New Subcatchment
S-166            IWAKUNI          IWK-176          7.796765 0.692145 279.226872 1.447517 0.000000                 
; New Subcatchment
S-167            IWAKUNI          CULVERT_STORAGE_20 2.272938 0.025737 150.762662 0.333821 0.000000                 
; New Subcatchment
S-168            IWAKUNI          IWK-179          12.135231 0.343985 348.356583 1.442118 0.000000                 
; New Subcatchment
S-169            IWAKUNI          CATCH_BASIN_1372 2.904054 0.772462 170.412857 1.457499 0.000000                 
; New Subcatchment
S-17             IWAKUNI          CATCH_BASIN_347  1.148535 7.198318 107.169734 1.590610 0.000000                 
; New Subcatchment
S-170            IWAKUNI          CATCH_BASIN_7    3.891032 110.514902 197.256985 1.718647 0.000000                 
; New Subcatchment
S-171            IWAKUNI          IWK-769          5.187857 43.290118 227.768674 2.241420 0.000000                 
; New Subcatchment
S-172            IWAKUNI          MANHOLE_409      11.226676 30.419847 335.062317 0.665410 0.000000                 
; New Subcatchment
S-173            IWAKUNI          MANHOLE_633      0.431294 9.618209 65.672984 1.840628 0.000000                 
; New Subcatchment
S-174            IWAKUNI          MANHOLE_406      2.608335 41.629212 161.503398 3.046298 0.000000                 
; New Subcatchment
S-175            IWAKUNI          MANHOLE_408      1.754374 56.691762 132.452772 3.097110 0.000000                 
; New Subcatchment
S-176            IWAKUNI          CATCH_BASIN_1858 1.836506 79.523541 135.517733 2.837794 0.000000                 
; New Subcatchment
S-177            IWAKUNI          CATCH_BASIN_246  1.143657 85.381161 106.941888 2.548404 0.000000                 
; New Subcatchment
S-178            IWAKUNI          CATCH_BASIN_548  1.892267 71.754057 137.559692 1.814780 0.000000                 
; New Subcatchment
S-18             IWAKUNI          MANHOLE_116      0.887134 4.767380 94.187767 1.509347 0.000000                 
; New Subcatchment
S-180            IWAKUNI          IWK-617          2.459875 54.556189 156.839882 1.730828 0.000000                 
; New Subcatchment
S-181            IWAKUNI          IWK-1016         3.344702 41.353545 182.885254 3.401998 0.000000                 
; New Subcatchment
S-183            IWAKUNI          CATCH_BASIN_2320 2.039711 22.114911 142.818438 1.983673 0.000000                 
; New Subcatchment
S-184            IWAKUNI          CATCH_BASIN_553  1.100697 60.814285 104.914091 2.452923 0.000000                 
; New Subcatchment
S-185            IWAKUNI          MANHOLE_927      4.559261 14.506657 213.524258 1.979329 0.000000                 
; New Subcatchment
S-186            IWAKUNI          CATCH_BASIN_1890 1.410630 2.418189 118.769964 2.015147 0.000000                 
; New Subcatchment
S-187            IWAKUNI          MANHOLE_118      0.781307 16.207309 88.391560 2.234358 0.000000                 
; New Subcatchment
S-188            IWAKUNI          MANHOLE_485      0.842682 14.594544 91.797700 2.059445 0.000000                 
; New Subcatchment
S-189            IWAKUNI          MANHOLE_183      0.903762 14.011816 95.066409 1.750875 0.000000                 
; New Subcatchment
S-19             IWAKUNI          MANHOLE_166      1.576613 10.285941 125.563268 1.611471 0.000000                 
; New Subcatchment
S-190            IWAKUNI          MANHOLE_187      0.945918 127.687090 97.258335 1.691424 0.000000                 
; New Subcatchment
S-191            IWAKUNI          MANHOLE_540      1.756827 67.991823 132.545334 1.612013 0.000000                 
; New Subcatchment
S-192            IWAKUNI          MANHOLE_494      2.563869 69.370263 160.120856 1.979500 0.000000                 
; New Subcatchment
S-193            IWAKUNI          CATCH_BASIN_4560 2.690485 4.401315 164.026969 1.739859 0.000000                 
; New Subcatchment
S-194            IWAKUNI          CATCH_BASIN_5413 0.313355 552.840945 55.978102 1.502342 0.000000                 
; New Subcatchment
S-195            IWAKUNI          MANHOLE_648      2.305446 75.122785 151.836950 1.701366 0.000000                 
; New Subcatchment
S-196            IWAKUNI          MANHOLE_117      0.905971 72.221008 95.182523 2.117945 0.000000                 
; New Subcatchment
S-197            IWAKUNI          MANHOLE_238      1.391264 8.842409 117.951870 1.724439 0.000000                 
; New Subcatchment
S-198            IWAKUNI          MANHOLE_527      1.989698 4.436865 141.056656 1.698616 0.000000                 
; New Subcatchment
S-199            IWAKUNI          MANHOLE_492      2.768759 1.535440 166.395881 1.742602 0.000000                 
; New Subcatchment
S-2              IWAKUNI          MANHOLE_167      1.613256 2.977743 127.014033 0.695015 0.000000                 
; New Subcatchment
S-20             IWAKUNI          CATCH_BASIN_1081 1.458743 19.798144 120.778440 1.810482 0.000000                 
; New Subcatchment
S-200            IWAKUNI          CATCH_BASIN_652  2.738789 2.766661 165.492881 1.757258 0.000000                 
; New Subcatchment
S-201            IWAKUNI          MANHOLE_177      1.285117 29.713078 113.362993 1.634969 0.000000                 
; New Subcatchment
S-202            IWAKUNI          MANHOLE_594      0.775385 25.893499 88.055958 1.676718 0.000000                 
; New Subcatchment
S-203            IWAKUNI          MANHOLE_677      0.935332 14.870524 96.712550 1.581655 0.000000                 
; New Subcatchment
S-204            IWAKUNI          MANHOLE_257      1.846064 67.590521 135.869932 1.509165 0.000000                 
; New Subcatchment
S-205            IWAKUNI          MANHOLE_249      0.783869 88.565650 88.536377 1.373129 0.000000                 
; New Subcatchment
S-206            IWAKUNI          MANHOLE_114      2.885949 40.066898 169.880817 1.522925 0.000000                 
; New Subcatchment
S-207            IWAKUNI          MANHOLE_895      1.648627 40.035945 128.398882 1.779297 0.000000                 
; New Subcatchment
S-208            IWAKUNI          IWK-1291         4.139733 79.363413 203.463334 1.171677 0.000000                 
; New Subcatchment
S-21             IWAKUNI          CATCH_BASIN_3132 1.448177 46.935729 120.340219 1.980333 0.000000                 
; New Subcatchment
S-210            IWAKUNI          MANHOLE_318      6.013100 14.701223 245.216227 1.213520 0.000000                 
; New Subcatchment
S-211            IWAKUNI          MANHOLE_125      2.287471 99.083282 151.243875 2.065218 0.000000                 
; New Subcatchment
S-212            IWAKUNI          IWK-959          3.344702 30.052628 182.885258 1.646358 0.000000                 
; New Subcatchment
S-213            IWAKUNI          IWK-35           6.268227 1.517411 250.364270 1.440918 0.000000                 
; New Subcatchment
S-215            IWAKUNI          IWK-1178         5.357804 23.647179 231.469298 1.523724 0.000000                 
; New Subcatchment
S-216            IWAKUNI          CATCH_BASIN_531  6.812150 16.764323 261.000950 1.178389 0.000000                 
; New Subcatchment
S-217            IWAKUNI          CATCH_BASIN_1468 2.496193 8.486539 157.993462 1.806940 0.000000                 
; New Subcatchment
S-218            IWAKUNI          CATCH_BASIN_271  1.755932 1.867677 132.511572 0.271893 0.000000                 
; New Subcatchment
S-219            IWAKUNI          CATCH_BASIN_865  4.288155 99.999107 207.078615 0.109766 0.000000                 
; New Subcatchment
S-22             IWAKUNI          IWK-509          0.420071 47.476411 64.812921 1.629560 0.000000                 
; New Subcatchment
S-220            IWAKUNI          CULVERT_STORAGE_31 4.096393 0.361854 202.395483 0.500000 0.000000                 
; New Subcatchment
S-221            IWAKUNI          IWK-607          6.217170 7.431786 249.342544 0.500000 0.000000                 
; New Subcatchment
S-222            IWAKUNI          IWK-764          3.337501 37.278180 182.688287 0.500000 0.000000                 
; New Subcatchment
S-223            IWAKUNI          MANHOLE_417      7.920208 51.298995 281.428633 0.500000 0.000000                 
; New Subcatchment
S-23             IWAKUNI          CATCH_BASIN_3387 0.942437 60.594737 97.079205 1.393391 0.000000                 
; New Subcatchment
S-230            IWAKUNI          MANHOLE_806      3.036834 19.246813 174.265149 0.781526 0.000000                 
; New Subcatchment
S-231            IWAKUNI          IWK-899          1.857441 26.057340 136.287959 2.422216 0.000000                 
; New Subcatchment
S-232            IWAKUNI          IWK-564          27.325837 8.712534 522.939297 1.759941 0.000000                 
; New Subcatchment
S-233            IWAKUNI          IWK-312          6.629122 7.330010 257.470819 2.343250 0.000000                 
; New Subcatchment
S-234            IWAKUNI          MANHOLE_1925     9.594779 11.581291 309.754405 1.632204 0.000000                 
; New Subcatchment
S-235            IWAKUNI          IWK-378          3.384009 50.843609 183.231372 1.022295 0.000000                 
; New Subcatchment
S-236            IWAKUNI          MANHOLE_290      8.653930 74.668379 294.175631 0.220955 0.000000                 
; New Subcatchment
S-237            IWAKUNI          MANHOLE_201      2.954765 65.679693 171.894289 0.410112 0.000000                 
; New Subcatchment
S-238            IWAKUNI          IWK-972          9.609071 25.880542 309.985009 1.193865 0.000000                 
; New Subcatchment
S-239            IWAKUNI          IWK-983          7.513005 42.173925 274.098618 0.446143 0.000000                 
; New Subcatchment
S-24             IWAKUNI          CATCH_BASIN_3997 0.337641 18.496190 58.106887 1.633731 0.000000                 
; New Subcatchment
S-240            IWAKUNI          IWK-391          7.285721 70.082646 269.920748 0.391080 0.000000                 
; New Subcatchment
S-241            IWAKUNI          MANHOLE_807      19.486635 48.830551 441.436692 0.532820 0.000000                 
; New Subcatchment
S-242            IWAKUNI          MANHOLE_271      34.865123 66.725059 590.466955 0.589444 0.000000                 
; New Subcatchment
S-244            IWAKUNI          IWK-68           17.021061 55.671416 412.565881 0.781157 0.000000                 
; New Subcatchment
S-245            IWAKUNI          IWK-1349         2.247588 37.199547 149.919582 0.889855 0.000000                 
; New Subcatchment
S-246            IWAKUNI          CATCH_BASIN_7685 0.025254 83.497822 15.891444 5.006278 0.000000                 
; New Subcatchment
S-247            IWAKUNI          IWK-1084         12.681804 53.681821 356.115213 0.707867 0.000000                 
; New Subcatchment
S-25             IWAKUNI          CATCH_BASIN_5261 1.073433 13.731668 103.606629 1.410612 0.000000                 
; New Subcatchment
S-250            IWAKUNI          MANHOLE_562      37.438757 12.027904 611.872186 1.017628 0.000000                 
; New Subcatchment
S-251            IWAKUNI          IWK-687          5.353349 0.128393 231.373055 0.198200 0.000000                 
; New Subcatchment
S-252            IWAKUNI          IWK-9001         12.015082 0.310950 341.377271 2.214505 0.000000                 
; New Subcatchment
S-253            IWAKUNI          MANHOLE_192      3.917284 98.956037 197.921286 0.228196 0.000000                 
; New Subcatchment
S-254            IWAKUNI          CULVERT_STORAGE_27 6.322117 2.580412 251.438208 0.475652 0.000000                 
; New Subcatchment
S-255            IWAKUNI          CATCH_BASIN_755  2.153167 64.447936 146.736740 2.596089 0.000000                 
; New Subcatchment
S-256            IWAKUNI          CATCH_BASIN_1435 2.549792 43.566259 159.680691 6.981866 0.000000                 
; New Subcatchment
S-257            IWAKUNI          CATCH_BASIN_3027 6.411286 1.144926 253.205167 0.279676 0.000000                 
; New Subcatchment
S-258            IWAKUNI          CATCH_BASIN_4    6.002984 0.263213 245.009871 0.196390 0.000000                 
; New Subcatchment
S-259            IWAKUNI          IWK-144          4.567045 73.096430 213.706467 0.522931 0.000000                 
; New Subcatchment
S-26             IWAKUNI          IWK-737          1.028543 1.396467 101.417103 1.767908 0.000000                 
; New Subcatchment
S-260            IWAKUNI          CATCH_BASIN_358  12.105983 20.586796 347.936531 0.907769 0.000000                 
; New Subcatchment
S-261            IWAKUNI          CATCH_BASIN_640  6.746877 4.612201 259.747518 0.369208 0.000000                 
; New Subcatchment
S-262            IWAKUNI          CATCH_BASIN_1059 3.842974 33.480990 196.035039 2.268441 0.000000                 
; New Subcatchment
S-263            IWAKUNI          CATCH_BASIN_359  3.819004 10.648641 195.422723 2.018374 0.000000                 
; New Subcatchment
S-264            IWAKUNI          CATCH_BASIN_499  2.833205 53.191342 168.321275 6.318124 0.000000                 
; New Subcatchment
S-265            IWAKUNI          CATCH_BASIN_3629 2.999545 9.256683 173.191941 0.500000 0.000000                 
; New Subcatchment
S-266            IWAKUNI          IWK-489          5.527985 23.799262 235.116670 0.486348 0.000000                 
; New Subcatchment
S-267            IWAKUNI          IWK-2133         9.939956 9.627486 315.276958 0.666717 0.000000                 
; New Subcatchment
S-27             IWAKUNI          MANHOLE_822      1.075446 31.276816 103.703712 1.722094 0.000000                 
; New Subcatchment
S-28             IWAKUNI          MANHOLE_513      1.617555 95.553512 127.183126 1.330084 0.000000                 
; New Subcatchment
S-29             IWAKUNI          CATCH_BASIN_4574 0.885194 9.221828 94.084771 1.186178 0.000000                 
; New Subcatchment
S-3              IWAKUNI          CATCH_BASIN_845  1.571142 35.387340 125.345191 0.711678 0.000000                 
; New Subcatchment
S-30             IWAKUNI          MANHOLE_88       2.422160 6.415967 155.632897 1.203181 0.000000                 
; New Subcatchment
S-31             IWAKUNI          MANHOLE_89       1.953185 8.475087 139.756392 0.983664 0.000000                 
; New Subcatchment
S-32             IWAKUNI          IWK-639          0.919805 39.878680 95.906450 0.921084 0.000000                 
; New Subcatchment
S-33             IWAKUNI          IWK-754          1.693160 0.939900 130.121472 0.939012 0.000000                 
; New Subcatchment
S-34             IWAKUNI          MANHOLE_47       6.225483 3.454375 249.509176 1.195695 0.000000                 
; New Subcatchment
S-35             IWAKUNI          IWK-683          1.272964 0.000000 112.825707 1.143430 0.000000                 
; New Subcatchment
S-36             IWAKUNI          IWK-2635         1.032148 2.427246 101.594691 0.942712 0.000000                 
; New Subcatchment
S-37             IWAKUNI          CATCH_BASIN_682  2.424008 8.938627 155.692260 0.806884 0.000000                 
; New Subcatchment
S-38             IWAKUNI          IWK-1222         3.261599 0.000000 180.598983 2.974219 0.000000                 
; New Subcatchment
S-39             IWAKUNI          IWK-825          0.683727 28.589232 82.687795 1.351481 0.000000                 
; New Subcatchment
S-4              IWAKUNI          IWK-753          1.621181 35.420584 127.325606 1.173902 0.000000                 
; New Subcatchment
S-42             IWAKUNI          IWK-2254         0.792183 0.000000 89.004651 1.240518 0.000000                 
; New Subcatchment
S-43             IWAKUNI          IWK-825          1.312975 0.901428 114.585128 1.861434 0.000000                 
; New Subcatchment
S-44             IWAKUNI          IWK-2635         1.042845 40.851977 102.119774 1.299843 0.000000                 
; New Subcatchment
S-45             IWAKUNI          IWK-2635         0.723918 0.000000 85.083358 1.048909 0.000000                 
; New Subcatchment
S-46             IWAKUNI          IWK-1225         3.820825 31.394162 195.469305 1.218296 0.000000                 
; New Subcatchment
S-48             IWAKUNI          IWK-527          4.671758 74.012510 216.142507 1.111352 0.000000                 
; New Subcatchment
S-49             IWAKUNI          IWK-916          3.265600 71.527549 180.709713 0.741268 0.000000                 
; New Subcatchment
S-5              IWAKUNI          MANHOLE_738      0.836160 32.238720 91.441768 0.496019 0.000000                 
; New Subcatchment
S-51             IWAKUNI          IWK-212          4.192380 0.217093 204.753028 3.076637 0.000000                 
; New Subcatchment
S-52             IWAKUNI          IWK-212          2.429642 11.034370 155.873105 2.792659 0.000000                 
; New Subcatchment
S-53             IWAKUNI          IWK-200          6.095187 0.014614 246.884331 3.295876 0.000000                 
; New Subcatchment
S-54             IWAKUNI          IWK-177          3.026692 32.354951 173.973894 2.812792 0.000000                 
; New Subcatchment
S-55             IWAKUNI          IWK-917          6.600261 32.013792 256.909736 1.787031 0.000000                 
S-56             IWAKUNI          IWK-9004         7.933204 0.040360 281.659432 0.500000 0.000000                 
; New Subcatchment
S-57             IWAKUNI          IWK-178          5.252447 1.219266 229.182169 1.970085 0.000000                 
; New Subcatchment
S-58             IWAKUNI          IWK-213          8.211279 0.036526 286.553302 2.110941 0.000000                 
; New Subcatchment
S-59             IWAKUNI          CATCH_BASIN_698  0.604462 277.233254 77.747148 1.456741 0.000000                 
; New Subcatchment
S-6              IWAKUNI          CATCH_BASIN_1697 3.605098 14.170683 189.870954 0.334355 0.000000                 
; New Subcatchment
S-60             IWAKUNI          IWK-625          4.548459 37.345021 213.271170 1.188018 0.000000                 
; New Subcatchment
S-61             IWAKUNI          MANHOLE_941      1.120623 72.210617 105.859504 1.685309 0.000000                 
; New Subcatchment
S-62             IWAKUNI          CATCH_BASIN_2630 0.968059 49.633601 98.389984 1.424184 0.000000                 
; New Subcatchment
S-63             IWAKUNI          IWK-167          0.727509 59.209973 85.294139 1.467589 0.000000                 
; New Subcatchment
S-64             IWAKUNI          CATCH_BASIN_3039 2.764402 7.940573 166.264908 1.382993 0.000000                 
; New Subcatchment
S-65             IWAKUNI          MANHOLE_381      1.482141 92.392080 121.743227 1.878835 0.000000                 
; New Subcatchment
S-66             IWAKUNI          MANHOLE_383      0.762697 44.704871 87.332516 1.610672 0.000000                 
; New Subcatchment
S-67             IWAKUNI          MANHOLE_200      1.819371 6.498828 134.884064 1.736776 0.000000                 
; New Subcatchment
S-68             IWAKUNI          MANHOLE_441      1.306580 52.928228 114.305741 1.715836 0.000000                 
; New Subcatchment
S-7              IWAKUNI          MANHOLE_835      1.083167 75.564802 104.075333 0.387110 0.000000                 
; New Subcatchment
S-70             IWAKUNI          CATCH_BASIN_2392 1.757785 41.828670 132.581466 1.871099 0.000000                 
; New Subcatchment
S-71             IWAKUNI          CATCH_BASIN_2070 0.546530 1.762116 73.927638 1.880472 0.000000                 
; New Subcatchment
S-8              IWAKUNI          IWK-1186         5.343666 0.024996 231.163712 3.736333 0.000000                 
; New Subcatchment
S-9              IWAKUNI          IWK-889          3.233499 1.676521 179.819338 3.362427 0.000000                 
S_CENTRAL_POND   IWAKUNI          CENTRAL_POND     4.292101 0.024254 207.173869 0.555709 0.000000                 
S_NORTH_POND     IWAKUNI          NORTH_POND       22.065700 0.000000 469.741423 0.542328 0.000000                 
S_NORTH_POND_B   IWAKUNI          NORTH_POND_B     2.492331 0.004986 157.871166 2.222429 0.000000                 
S_SOUTH_POND_A   IWAKUNI          SOUTH_POND_A     28.763971 10.108867 536.320526 0.443913 0.000000                 

[SUBAREAS]
;;Subcatchment   N-Imperv   N-Perv     S-Imperv   S-Perv     PctZero    RouteTo    PctRouted 
;;-------------- ---------- ---------- ---------- ---------- ---------- ---------- ----------
S-1              0.015000   0.200000   1.000000   5.000000   25.000000  OUTLET    
S-10             0.015000   0.200000   1.000000   5.000000   25.000000  OUTLET    
S-11             0.015000   0.200000   1.000000   5.000000   25.000000  OUTLET    
S-111            0.015000   0.200000   1.000000   5.000000   25.000000  OUTLET    
S-112            0.015000   0.200000   1.000000   5.000000   25.000000  OUTLET    
S-113            0.015000   0.200000   1.000000   5.000000   25.000000  OUTLET    
S-114            0.015000   0.200000   1.000000   5.000000   25.000000  OUTLET    
S-115            0.015000   0.200000   1.000000   5.000000   25.000000  OUTLET    
S-116            0.015000   0.200000   1.000000   5.000000   25.000000  OUTLET    
S-117            0.015000   0.200000   1.000000   5.000000   25.000000  OUTLET    
S-118            0.015000   0.200000   1.000000   5.000000   25.000000  OUTLET    
S-119            0.015000   0.200000   1.000000   5.000000   25.000000  OUTLET    
S-12             0.015000   0.200000   1.000000   5.000000   25.000000  OUTLET    
S-123            0.015000   0.200000   1.000000   5.000000   25.000000  OUTLET    
S-124            0.015000   0.200000   1.000000   5.000000   25.000000  OUTLET    
S-13             0.015000   0.200000   1.000000   5.000000   25.000000  OUTLET    
S-138            0.015000   0.200000   1.000000   5.000000   25.000000  OUTLET    
S-139            0.015000   0.200000   1.000000   5.000000   25.000000  OUTLET    
S-14             0.015000   0.200000   1.000000   5.000000   25.000000  OUTLET    
S-141            0.015000   0.200000   1.000000   5.000000   25.000000  OUTLET    
S-142            0.015000   0.200000   1.000000   5.000000   25.000000  OUTLET    
S-143            0.015000   0.200000   1.000000   5.000000   25.000000  OUTLET    
S-144            0.015000   0.200000   1.000000   5.000000   25.000000  OUTLET    