[TITLE]
;;Project Title/Notes

[OPTIONS]
;;Option             Value
FLOW_UNITS           CMS
INFILTRATION         CURVE_NUMBER
FLOW_ROUTING         DYNWAVE
LINK_OFFSETS         DEPTH
MIN_SLOPE            0
ALLOW_PONDING        NO
SKIP_STEADY_STATE    NO

START_DATE           12/06/2017
START_TIME           00:00:00
REPORT_START_DATE    12/06/2017
REPORT_START_TIME    00:00:00
END_DATE             12/06/2017
END_TIME             06:00:00
SWEEP_START          01/01
SWEEP_END            12/31
DRY_DAYS             0
REPORT_STEP          00:05:00
WET_STEP             00:05:00
DRY_STEP             01:00:00
ROUTING_STEP         0:00:30 

INERTIAL_DAMPING     PARTIAL
NORMAL_FLOW_LIMITED  BOTH
FORCE_MAIN_EQUATION  H-W
VARIABLE_STEP        0.75
LENGTHENING_STEP     0
MIN_SURFAREA         12.557
MAX_TRIALS           8
HEAD_TOLERANCE       0.005
SYS_FLOW_TOL         5
LAT_FLOW_TOL         5
MINIMUM_STEP         0.5
THREADS              1

[EVAPORATION]
;;Data Source    Parameters
;;-------------- ----------------
CONSTANT         0.0
DRY_ONLY         NO

[RAINGAGES]
;;Name           Format    Interval SCF      Source    
;;-------------- --------- ------ ------ ----------
RG1              INTENSITY 0:05     1.0      TIMESERIES 嘉義10年(三型)  

[SUBCATCHMENTS]
;;Name           Rain Gage        Outlet           Area     %Imperv  Width    %Slope   CurbLen  SnowPack        
;;-------------- ---------------- ---------------- -------- -------- -------- -------- -------- ----------------
S01              RG1              J32              29.7     3.6      373.1    85       0                        
S02              RG1              J32              1.7      0.5      82.2     23       0                        
S03              RG1              J1               3.7      21       194.2    20       0                        
S04              RG1              J33              5        25       500      0.5      0                        
S05              RG1              J2               4        60.6     478.2    24.0     0                        
S06              RG1              J2               4.8      0        742      14       0                        
S07              RG1              J5               3.8      45.8     386.4    6        0                        
S08              RG1              J3               0.4      0        67.5     2        0                        
S09              RG1              J35              1.6      75.3     101.6    11       0                        
S10              RG1              J4               0.6      6.9      84.2     5        0                        
S11              RG1              J37              0.4      17.2     41       7        0                        
S12              RG1              J37              0.4      0        61.1     4        0                        
S13              RG1              J35              0.6      14.4     135.4    6        0                        
S14              RG1              J38              0.7      14.1     86.6     5        0                        
S15              RG1              J40              1.5      23.4     121.8    5        0                        
S16              RG1              J38              3.7      4.6      224.4    20       0                        
S17              RG1              J41              1.3      39.4     118.2    7        0                        
S18              RG1              J13              5.8      42.9     267.5    21       0                        
S19              RG1              J46              1.4      48.5     196.8    2        0                        
S20              RG1              S21              0.3      50.4     30.2     7        0                        
S21              RG1              J11              1.1      87.7     95.2     2        0                        
S22              RG1              S20              1.5      57.4     152.8    16       0                        
S23              RG1              S22              1.1      9.5      94.1     22       0                        
S24              RG1              J47              1.8      25.6     71.9     22       0                        
S25              RG1              J47              0.1      0        24.7     14       0                        
S26              RG1              J49              1.1      33.4     88       20       0                        
S27              RG1              J49              0.7      71.4     46.8     00       0                        
S28              RG1              J13              2        66.2     70.6     10       0                        
S29              RG1              S18              0.2      20.8     12.9     1        0                        
S30              RG1              S18              0.9      78.1     71.5     2        0                        
S31              RG1              S33              0.7      85.1     82.6     2        0                        
S32              RG1              J15              1.7      49.2     167.8    4        0                        
S33              RG1              S32              0.8      18.6     75.5     4        0                        
S34              RG1              S32              0.8      82.5     76.7     1        0                        
S35              RG1              S51              1.4      96       177.2    2        0                        
S36              RG1              J50              0.2      0        13.7     4        0                        
S37              RG1              J52              2.1      34.3     109.6    1        0                        
S38              RG1              J54              0.7      0        35.9     10       0                        
S39              RG1              S51              0.1      9.9      12.4     3        0                        
S40              RG1              S51              0.9      80.2     68       5        0                        
S41              RG1              J55              1.6      0        92.3     20       0                        
S42              RG1              S51              1.5      34.7     68.9     10       0                        
S43              RG1              J50              0.2      0        33.1     7        0                        
S44              RG1              J51              0.6      49.6     190.4    11       0                        
S45              RG1              J54              0.1      0        10.7     11       0                        
S46              RG1              J54              1        51.7     108.7    10       0                        
S47              RG1              J57              0.8      14.2     60.4     11       0                        
S48              RG1              J58              0.8      100      62.8     14       0                        
S49              RG1              J57              0.8      18.8     92.3     5        0                        
S50              RG1              J61              1        9.4      104.4    20       0                        
S51              RG1              J22              2.5      34.4     118.7    8        0                        
S52              RG1              J19              5        31.3     414.8    23       0                        
S53              RG1              J20              0.4      36.4     24.8     6        0                        
S54              RG1              S60              2        15.4     167.2    17       0                        
S55              RG1              S56              0.3      17.8     21.1     13       0                        
S56              RG1              J28              4.1      16.7     174.5    23       0                        
S57              RG1              S56              0.3      73.3     25.6     10       0                        
S58              RG1              S56              0.7      27.5     82.4     14       0                        
S59              RG1              J28              1.9      11.3     98.4     10       0                        
S60              RG1              J29              1        41.2     74.1     17       0                        
S61              RG1              J29              0.4      64.3     34.5     12       0                        
S62              RG1              S61              0.1      0        22       17       0                        
S63              RG1              J29              0.5      0        51.6     17       0                        
S64              RG1              J36              0.1      0        25.2     14       0                        
S65              RG1              S32              0.1      0        7.7      1        0                        

[SUBAREAS]
;;Subcatchment   N-Imperv   N-Perv     S-Imperv   S-Perv     PctZero    RouteTo    PctRouted 
;;-------------- ---------- ---------- ---------- ---------- ---------- ---------- ----------
S01              0.012      0.8        0.05       0.05       25         OUTLET    
S02              0.012      0.06       0.05       0.05       25         OUTLET    
S03              0.012      0.8        0.05       0.05       25         OUTLET    
S04              0.01       0.1        0.05       0.05       25         OUTLET    
S05              0.011      0.8        0.05       0.05       25         OUTLET    
S06              0          0.8        0.05       0.05       25         OUTLET    
S07              0.012      0.15       0.05       0.05       25         OUTLET    
S08              0          0.014      0.05       0.05       25         OUTLET    
S09              0.012      0.8        0.05       0.05       25         OUTLET    
S10              0.011      0.05       0.05       0.05       25         OUTLET    
S11              0.012      0.05       0.05       0.05       25         OUTLET    
S12              0          0.014      0.05       0.05       25         OUTLET    
S13              0.011      0.014      0.05       0.05       25         OUTLET    
S14              0.011      0.014      0.05       0.05       25         OUTLET    
S15              0.012      0.06       0.05       0.05       25         OUTLET    
S16              0.012      0.8        0.05       0.05       25         OUTLET    
S17              0.012      0.8        0.05       0.05       25         OUTLET    
S18              0.012      0.8        0.05       0.05       25         OUTLET    
S19              0.011      0.014      0.05       0.05       25         OUTLET    
S20              0.011      0.05       0.05       0.05       25         OUTLET    
S21              0.012      0.15       0.05       0.05       25         OUTLET    
S22              0.012      0.8        0.05       0.05       25         OUTLET    
S23              0.012      0.8        0.05       0.05       25         OUTLET    
S24              0.012      0.8        0.05       0.05       25         OUTLET    
S25              0          0.014      0.05       0.05       25         OUTLET    
S26              0.012      0.8        0.05       0.05       25         OUTLET    
S27              0.012      0.15       0.05       0.05       25         OUTLET    
S28              0.012      0.8        0.05       0.05       25         OUTLET    
S29              0.011      0.8        0.05       0.05       25         OUTLET    
S30              0.012      0.15       0.05       0.05       25         OUTLET    
S31              0.012      0.8        0.05       0.05       25         OUTLET    
S32              0.012      0.15       0.05       0.05       25         OUTLET    
S33              0.012      0.15       0.05       0.05       25         OUTLET    
S34              0.012      0.8        0.05       0.05       25         OUTLET    
S35              0.011      0.06       0.05       0.05       25         IMPERVIOUS 50        
S36              0          0.8        0.05       0.05       25         OUTLET    
S37              0.024      0.15       0.05       0.05       25         OUTLET    
S38              0.012      0.15       0.05       0.05       25         OUTLET    
S39              0.011      0.8        0.05       0.05       25         OUTLET    
S40              0.011      0.15       0.05       0.05       25         OUTLET    
S41              0          0.8        0.05       0.05       25         OUTLET    
S42              0.011      0.15       0.05       0.05       25         OUTLET    
S43              0          0.6        0.05       0.05       25         OUTLET    
S44              0.012      0.15       0.05       0.05       25         OUTLET    
S45              0          0.8        0.05       0.05       25         OUTLET    
S46              0.012      0.15       0.05       0.05       25         OUTLET    
S47              0.011      0.8        0.05       0.05       25         OUTLET    
S48              0.011      0          0.05       0.05       25         OUTLET    
S49              0.011      0.8        0.05       0.05       25         OUTLET    
S50              0.012      0.8        0.05       0.05       25         OUTLET    
S51              0.011      0.15       0.05       0.05       25         OUTLET    
S52              0.011      0.8        0.05       0.05       25         OUTLET    
S53              0.011      0.014      0.05       0.05       25         OUTLET    
S54              0.011      0.8        0.05       0.05       25         OUTLET    
S55              0.012      0.014      0.05       0.05       25         OUTLET    
S56              0.012      0.8        0.05       0.05       25         OUTLET    
S57              0.012      0.014      0.05       0.05       25         OUTLET    
S58              0.012      0.8        0.05       0.05       25         OUTLET    
S59              0.012      0.15       0.05       0.05       25         OUTLET    
S60              0.012      0.8        0.05       0.05       25         OUTLET    
S61              0.012      0.15       0.05       0.05       25         OUTLET    
S62              0          0.8        0.05       0.05       25         OUTLET    
S63              0          0.8        0.05       0.05       25         OUTLET    
S64              0          0.15       0.05       0.05       25         OUTLET    
S65              0          0.014      0.05       0.05       25         OUTLET    

[INFILTRATION]
;;Subcatchment   CurveNum              DryTime   
;;-------------- ---------- ---------- ----------
S01              70         0.5        4         
S02              88         0.5        4         
S03              70         0.5        4         
S04              88         0.5        4         
S05              70         0.5        4         
S06              70         0.5        4         
S07              74         0.5        4         
S08              87         0.5        4         
S09              70         0.5        4         
S10              88         0.5        4         
S11              88         0.5        4         
S12              87         0.5        4         
S13              87         0.5        4         
S14              87         0.5        4         
S15              88         0.5        4         
S16              70         0.5        4         
S17              70         0.5        4         
S18              70         0.5        4         
S19              87         0.5        4         
S20              88         0.5        4         
S21              74         0.5        4         
S22              70         0.5        4         
S23              70         0.5        4         
S24              70         0.5        4         
S25              87         0.5        4         
S26              70         0.5        4         
S27              98         0.5        4         
S28              98         0.5        4         
S29              70         0.5        4         
S30              98         0.5        4         
S31              98         0.5        4         
S32              74         0.5        4         
S33              74         0.5        4         
S34              70         0.5        7         
S35              88         0.5        4         
S36              70         0.5        4         
S37              74         0.5        4         
S38              74         0.5        4         
S39              74         0.5        4         
S40              98         0.5        4         
S41              70         0.5        4         
S42              74         0.5        4         
S43              88         0.5        4         
S44              77         0.5        4         
S45              70         0.5        4         
S46              77         0.5        4         
S47              70         0.5        4         
S48              98         0.5        4         
S49              55         0.5        4         
S50              55         0.5        4         
S51              82         0.5        4         
S52              55         0.5        4         
S53              98         0.5        4         
S54              55         0.5        4         
S55              98         0.5        4         
S56              55         0.5        4         
S57              98         0.5        4         
S58              55         0.5        4         
S59              61         0.5        7         
S60              98         0.5        4         
S61              98         0.5        4         
S62              55         0.5        4         
S63              70         0.5        4         
S64              74         0.5        4         
S65              87         0.5        7         

[JUNCTIONS]
;;Name           Elevation  MaxDepth   InitDepth  SurDepth   Aponded   
;;-------------- ---------- ---------- ---------- ---------- ----------
J1               0          0          0          0          0         
J2               0          0          0          0          0         
J3               0          0          0          0          0         
J4               0          0          0          0          0         
J5               0          0          0          0          0         
J6               0          0          0          0          0         
J7               0          0          0          0          0         
J8               0          0          0          0          0         
J9               0          0          0          0          0         
J10              0          0          0          0          0         
J11              0          0          0          0          0         
J12              0          0          0          0          0         
J13              0          0          0          0          0         
J14              0          0          0          0          0         
J15              0          0          0          0          0         
J16              0          0          0          0          0         
J17              0          0          0          0          0         
J18              0          0          0          0          0         
J19              0          0          0          0          0         
J20              0          0          0          0          0         
J21              0          0          0          0          0         
J22              0          0          0          0          0         
J23              0          0          0          0          0         
J24              0          0          0          0          0         
J25              0          0          0          0          0         
J26              0          0          0          0          0         
J27              0          0          0          0          0         
J28              0          0          0          0          0         
J29              0          0          0          0          0         
J30              0          0          0          0          0         
J31              0          0          0          0          0         
J32              0          0          0          0          0         
J33              0          0          0          0          0         
J34              0          0          0          0          0         
J35              0          0          0          0          0         
J36              0          0          0          0          0         
J37              0          0          0          0          0         
J38              0          0          0          0          0         
J39              0          0          0          0          0         
J40              0          0          0          0          0         
J41              0          0          0          0          0         
J42              0          0          0          0          0         
J43              0          0          0          0          0         
J44              0          0          0          0          0         
J45              0          0          0          0          0         
J46              0          0          0          0          0         
J47              0          0          0          0          0         
J48              0          0          0          0          0         
J49              0          0          0          0          0         
J50              0          0          0          0          0         
J51              0          0          0          0          0         
J52              0          0          0          0          0         
J53              0          0          0          0          0         
J54              0          0          0          0          0         
J55              0          0          0          0          0         
J56              0          0          0          0          0         
J57              0          0          0          0          0         
J58              0          0          0          0          0         
J59              0          0          0          0          0         
J60              0          0          0          0          0         
J61              0          0          0          0          0         
J62              0          0          0          0          0         
J63              0          0          0          0          0         

[OUTFALLS]
;;Name           Elevation  Type       Stage Data       Gated    Route To        
;;-------------- ---------- ---------- ---------------- -------- ----------------
O1               0          FREE                        NO                       

[CONDUITS]
;;Name           From Node        To Node          Length     Roughness  InOffset   OutOffset  InitFlow   MaxFlow   
;;-------------- ---------------- ---------------- ---------- ---------- ---------- ---------- ---------- ----------
C1               J1               J2               400        0.01       0          0          0          0         
C2               J2               J3               400        0.01       0          0          0          0         
C3               J3               J4               400        0.01       0          0          0          0         
C4               J4               J5               400        0.01       0          0          0          0         
C5               J5               J6               400        0.01       0          0          0          0         
C6               J6               J7               400        0.01       0          0          0          0         
C7               J7               J8               400        0.01       0          0          0          0         
C8               J8               J9               400        0.01       0          0          0          0         
C9               J9               J10              400        0.01       0          0          0          0         
C10              J10              J11              400        0.01       0          0          0          0         
C11              J11              J12              400        0.01       0          0          0          0         
C12              J12              J13              400        0.01       0          0          0          0         
C13              J13              J14              400        0.01       0          0          0          0         
C14              J14              J15              400        0.01       0          0          0          0         
C15              J15              J16              400        0.01       0          0          0          0         
C16              J16              J17              400        0.01       0          0          0          0         
C17              J17              J18              400        0.01       0          0          0          0         
C18              J18              J19              400        0.01       0          0          0          0         
C19              J19              J20              400        0.01       0          0          0          0         
C20              J20              J21              400        0.01       0          0          0          0         
C21              J21              J22              400        0.01       0          0          0          0         
C22              J22              J23              400        0.01       0          0          0          0         
C23              J23              J24              400        0.01       0          0          0          0         
C24              J24              J25              400        0.01       0          0          0          0         
C25              J25              J26              400        0.01       0          0          0          0         
C26              J26              J27              400        0.01       0          0          0          0         
C27              J27              J28              400        0.01       0          0          0          0         
C28              J28              J29              400        0.01       0          0          0          0         
C29              J29              J30              400        0.01       0          0          0          0         
C30              J30              J31              400        0.01       0          0          0          0         
C31              J31              O1               400        0.01       0          0          0          0         
C32              J32              J33              400        0.01       0          0          0          0         
C33              J33              J34              400        0.01       0          0          0          0         
C34              J34              J35              400        0.01       0          0          0          0         
C35              J35              J36              400        0.01       0          0          0          0         
C36              J36              J37              400        0.01       0          0          0          0         
C37              J37              J38              400        0.01       0          0          0          0         
C38              J38              J39              400        0.01       0          0          0          0         
C39              J39              J40              400        0.01       0          0          0          0         
C40              J40              J41              400        0.01       0          0          0          0         
C41              J41              J42              400        0.01       0          0          0          0         
C42              J42              J43              400        0.01       0          0          0          0         
C43              J43              J44              400        0.01       0          0          0          0         
C44              J44              J45              400        0.01       0          0          0          0         
C45              J45              J46              400        0.01       0          0          0          0         
C46              J46              J9               400        0.01       0          0          0          0         
C47              J47              J48              400        0.01       0          0          0          0         
C48              J48              J49              400        0.01       0          0          0          0         
C49              J49              J50              400        0.01       0          0          0          0         
C50              J50              J51              400        0.01       0          0          0          0         
C51              J51              J52              400        0.01       0          0          0          0         
C52              J52              J53              400        0.01       0          0          0          0         
C53              J53              J54              400        0.01       0          0          0          0         
C54              J54              J55              400        0.01       0          0          0          0         
C55              J55              J56              400        0.01       0          0          0          0         
C56              J56              J57              400        0.01       0          0          0          0         
C57              J57              J58              400        0.01       0          0          0          0         
C58              J58              J59              400        0.01       0          0          0          0         
C59              J59              J60              400        0.01       0          0          0          0         