[TITLE]
;;Project Title/Notes
Scenario Run :  BASE

[OPTIONS]
;;Option             Value
FLOW_UNITS           CFS
INFILTRATION         HORTON
FLOW_ROUTING         DYNWAVE
LINK_OFFSETS         DEPTH
MIN_SLOPE            0
ALLOW_PONDING        YES
SKIP_STEADY_STATE    NO

START_DATE           05/25/2011
START_TIME           00:00:00
REPORT_START_DATE    05/25/2011
REPORT_START_TIME    00:05:00
END_DATE             05/25/2011
END_TIME             23:45:00
SWEEP_START          01/01
SWEEP_END            12/31
DRY_DAYS             5.000000
REPORT_STEP          00:05:00
WET_STEP             00:15:00
DRY_STEP             01:00:00
ROUTING_STEP         0:00:10 

INERTIAL_DAMPING     PARTIAL
NORMAL_FLOW_LIMITED  BOTH
FORCE_MAIN_EQUATION  H-W
VARIABLE_STEP        0.75
LENGTHENING_STEP     5
MIN_SURFAREA         12.566000
MAX_TRIALS           12
HEAD_TOLERANCE       0.000100
SYS_FLOW_TOL         5
LAT_FLOW_TOL         5
MINIMUM_STEP         0.500000
THREADS              1

[FILES]
;;Interfacing Files
SAVE RAINFALL "C:\Users\dickinre\Desktop\RIVERANDRAINDATA\PG009Rain 7-28.txt"

[EVAPORATION]
;;Data Source    Parameters
;;-------------- ----------------
CONSTANT         0.000000
DRY_ONLY         NO

[RAINGAGES]
;;Name           Format    Interval SCF      Source    
;;-------------- --------- ------ ------ ----------
RG_PG009         VOLUME    0.250000 0.000000 TIMESERIES RG_PG009        
; DWSD PG012
RG_PG012         VOLUME    0.250000 0.000000 TIMESERIES RG_PG012        
; DWSD PG013
RG_PG013         VOLUME    0.250000 0.000000 TIMESERIES RG_PG013        
; DWSD PG030
RG_PG030         VOLUME    0.250000 0.000000 TIMESERIES RG_PG030        
; DWSD PG034
RG_PG034         VOLUME    0.250000 0.000000 TIMESERIES RG_PG034        
; DWSD PG037
RG_PG037         VOLUME    0.250000 0.000000 TIMESERIES RG_PG037        

[SUBCATCHMENTS]
;;Name           Rain Gage        Outlet           Area     %Imperv  Width    %Slope   CurbLen  SnowPack        
;;-------------- ---------------- ---------------- -------- -------- -------- -------- -------- ----------------
1                RG_PG009         JCT-3576         16.570200 39.400156 424.792500 0.597013 0.000000                 
10               RG_PG009         JCT-3300         24.436500 30.195445 515.860000 0.180235 0.000000                 
100              RG_PG009         JCT-2740         36.029500 28.621104 626.385000 0.817660 0.000000                 
101              RG_PG009         JCT-1880         44.103800 22.993256 693.030000 1.058329 0.000000                 
102              RG_PG009         JCT-960          49.549400 21.933052 734.570000 0.518025 0.000000                 
103              RG_PG009         JCT-3526         33.610400 16.881981 604.990000 0.730916 0.000000                 
104              RG_PG009         JCT-3722         25.634500 33.917761 528.355000 0.479703 0.000000                 
105              RG_PG009         JCT-3056         27.011200 34.453602 542.355000 0.224091 0.000000                 
106              RG_PG009         JCT-3666         16.051000 34.969845 418.084000 0.263028 0.000000                 
107              RG_PG009         JCT-394          11.693900 36.282011 356.855500 0.339492 0.000000                 
108              RG_PG009         JCT-3320         21.033500 30.308861 478.596000 0.182204 0.000000                 
109              RG_PG009         JCT-3402         29.516200 31.918170 566.950000 0.263275 0.000000                 
11               RG_PG009         CM2              14.443600 29.959639 396.598000 0.693426 0.000000                 
110              RG_PG009         JCT-966          48.283900 32.179103 725.130000 0.249527 0.000000                 
111              RG_PG009         JCT-3514         45.851600 31.646459 706.630000 0.418672 0.000000                 
112              RG_PG009         JCT-3254         29.787000 32.271288 569.545000 0.607019 0.000000                 
113              RG_PG009         JCT-2992         29.915200 29.000000 570.765000 0.944737 0.000000                 
114              RG_PG009         JCT-2990         28.015000 29.000000 552.345000 0.859106 0.000000                 
115              RG_PG009         JCT-2986         39.307600 31.983660 654.260000 0.603859 0.000000                 
116              RG_PG009         JCT-400          50.673400 31.549311 742.855000 0.225157 0.000000                 
117              RG_PG009         JCT-1834         26.317900 31.323743 535.355000 0.186322 0.000000                 
118              RG_PG009         JCT-1836         45.825900 30.858797 706.430000 0.359619 0.000000                 
119              RG_PG009         JCT-2990         13.823300 29.000000 387.989500 0.772989 0.000000                 
12               RG_PG009         JCT-3198         9.877930 31.006178 327.979000 0.373253 0.000000                 
120              RG_PG009         JCT-2738         30.479200 29.000000 576.125000 0.889241 0.000000                 
121              RG_PG009         JCT-1836         25.919800 32.000000 531.285000 0.387135 0.000000                 
122              RG_PG009         JCT-1808         48.064900 28.000000 723.480000 0.563212 0.000000                 
123              RG_PG009         JCT-1810         50.352700 29.000000 740.500000 0.138024 0.000000                 
124              RG_PG009         JCT-3326         45.844700 29.000000 706.575000 0.259533 0.000000                 
125              RG_PG009         JCT-400          17.937300 32.389544 441.968500 0.348438 0.000000                 
126              RG_PG009         JCT-398          12.155500 34.522535 363.831000 0.309168 0.000000                 
127              RG_PG009         JCT-3550         40.008000 29.819443 660.065000 0.149351 0.000000                 
128              RG_PG009         JCT-2860         38.281100 33.646065 645.660000 0.212780 0.000000                 
129              RG_PG009         JCT-394          5.020590 40.003662 233.824500 0.279854 0.000000                 
131              RG_PG009         JCT-396          19.913900 35.368223 465.684000 0.210840 0.000000                 
132              RG_PG009         JCT-1274         19.144500 34.358475 456.599500 0.332111 0.000000                 
133              RG_PG009         JCT-3220         15.867700 17.779200 415.690000 0.185262 0.000000                 
135              RG_PG009         JCT-3064         26.826100 23.651900 540.495000 0.213287 0.000000                 
136              RG_PG009         JCT-3066         13.115500 21.135662 377.924500 0.553620 0.000000                 
137              RG_PG009         JCT-3224         19.995300 23.591693 466.634500 0.150000 0.000000                 
138              RG_PG009         JCT-3226         20.228800 15.389212 469.351000 0.450000 0.000000                 
139              RG_PG009         JCT-3466         19.850900 21.690077 464.947000 0.869725 0.000000                 
14               RG_PG009         JCT-3156         10.138300 31.922607 332.273500 0.466725 0.000000                 
140              RG_PG009         JCT-3286         32.891600 19.348479 598.490000 0.276000 0.000000                 
141              RG_PG009         JCT-3134         19.540000 22.794299 461.291000 0.300000 0.000000                 
142              RG_PG009         JCT-2110         43.581300 9.600000 688.910000 0.350000 0.000000                 
143              RG_PG009         JCT-3222         35.366800 24.000000 620.600000 0.157740 0.000000                 
144              RG_PG009         JCT-3220         37.068100 24.163806 635.350000 0.566201 0.000000                 
145              RG_PG009         JCT-3064         39.489400 21.267170 655.770000 0.607102 0.000000                 
146              RG_PG009         JCT-3590         42.706600 36.136054 681.960000 0.184676 0.000000                 
147              RG_PG009         JCT-3030         36.260100 30.544857 628.390000 0.331115 0.000000                 
148              RG_PG009         JCT-3082         39.707100 27.293333 657.575000 0.839976 0.000000                 
149              RG_PG009         JCT-3224         38.800500 20.991243 650.025000 0.956011 0.000000                 
15               RG_PG009         JCT-3158         9.232020 32.982712 317.074500 0.525615 0.000000                 
150              RG_PG009         JCT-3308         39.747000 27.711693 657.910000 1.401115 0.000000                 
151              RG_PG009         JCT-3290         39.301500 21.785085 654.210000 0.734900 0.000000                 
152              RG_PG009         JCT-3398         40.386700 28.250760 663.180000 0.591877 0.000000                 
153              RG_PG009         JCT-3388         11.489100 21.837675 353.717500 0.780000 0.000000                 
154              RG_PG009         JCT-3382         20.686500 27.466050 474.631000 1.515710 0.000000                 
155              RG_PG009         JCT-2130         20.812300 24.997193 476.073000 1.351884 0.000000                 
156              RG_PG009         JCT-2438         42.463000 25.495455 680.015000 1.697978 0.000000                 
157              RG_PG009         JCT-3068         28.143400 30.924407 553.605000 0.027287 0.000000                 
158              RG_PG009         JCT-3126         26.993100 31.082264 542.175000 0.131821 0.000000                 
159              RG_PG009         JCT-3124         24.709100 28.590080 518.730000 0.224999 0.000000                 
16               RG_PG009         JCT-909          9.171620 34.356968 316.035500 0.456807 0.000000                 
160              RG_PG009         JCT-3632         44.415600 22.095812 695.475000 0.200310 0.000000                 
161              RG_PG009         JCT-3550         34.566000 32.201268 613.535000 0.109858 0.000000                 
162              RG_PG009         JCT-3082         10.599600 28.067012 339.748000 0.375686 0.000000                 
163              RG_PG009         JCT-3310         48.565600 26.489317 727.240000 1.175597 0.000000                 
164              RG_PG009         JCT-3398         44.243700 28.337007 694.125000 0.617469 0.000000                 
165              RG_PG009         JCT-3120         21.499600 28.609702 483.869500 0.865878 0.000000                 
166              RG_PG009         JCT-3606         15.203700 26.415018 406.900500 4.072050 0.000000                 
167              RG_PG009         JCT-3078         37.143200 26.666674 635.995000 0.883712 0.000000                 
168              RG_PG009         JCT-3404         25.914900 32.614860 531.235000 1.422489 0.000000                 
169              RG_PG009         JCT-3404         11.520000 21.208963 354.192500 3.635705 0.000000                 
17               RG_PG009         CM1              10.090100 34.372285 331.483000 0.295048 0.000000                 
170              RG_PG009         JCT-3042         37.302300 26.080281 637.355000 1.740515 0.000000                 
171              RG_PG009         JCT-3216         25.817100 22.453012 530.235000 2.135855 0.000000                 
172              RG_PG009         JCT-3370         36.408400 25.597605 629.670000 0.226360 0.000000                 
173              RG_PG009         JCT-3076         14.814100 32.907494 401.652000 1.249617 0.000000                 
174              RG_PG009         JCT-3610         20.731800 33.050111 475.151000 1.247858 0.000000                 
175              RG_PG009         JCT-3078         32.657700 26.612139 596.355000 1.720925 0.000000                 
176              RG_PG009         JCT-3042         10.396800 25.665377 336.483000 1.907342 0.000000                 
177              RG_PG009         JCT-3658         45.451000 24.632569 703.535000 2.114248 0.000000                 
178              RG_PG009         JCT-3214         19.251000 22.989942 457.867500 2.077101 0.000000                 
179              RG_PG009         JCT-3216         18.416300 24.652064 447.831500 0.330504 0.000000                 
18               RG_PG009         JCT-3202         9.857470 33.150005 327.639500 0.317235 0.000000                 
180              RG_PG009         JCT-3370         16.635100 27.666200 425.623000 0.190940 0.000000                 
181              RG_PG009         JCT-1344         26.009000 24.160468 532.200000 2.199907 0.000000                 
182              RG_PG009         JCT-2904         39.584600 19.609020 656.565000 0.464668 0.000000                 
183              RG_PG009         JCT-2634         49.210800 25.895019 732.055000 0.217234 0.000000                 
184              RG_PG009         JCT-2598         34.162600 22.568576 609.945000 0.098837 0.000000                 
185              RG_PG009         JCT-3368         34.493600 26.169506 612.890000 0.287440 0.000000                 
186              RG_PG009         JCT-3026         12.143800 24.374638 363.656000 0.170609 0.000000                 
187              RG_PG009         JCT-958          19.894600 25.456096 465.458000 0.001769 0.000000                 
189              RG_PG009         JCT-62           41.763600 19.140000 674.390000 1.162925 0.000000                 
19               RG_PG009         JCT-3390         19.646400 32.000937 462.546000 0.308859 0.000000                 
190              RG_PG009         JCT-1668         32.274300 20.650168 592.845000 2.691662 0.000000                 
191              RG_PG009         JCT-1666         20.459400 21.412882 472.019000 0.772594 0.000000                 
192              RG_PG009         JCT-592          31.759400 20.880000 588.100000 0.202406 0.000000                 
193              RG_PG009         JCT-1536         28.402800 29.694618 556.150000 0.545826 0.000000                 
194              RG_PG009         JCT-950          26.690000 41.595081 539.120000 0.231280 0.000000                 
195              RG_PG009         JCT-2304         38.036300 26.698201 643.595000 0.263627 0.000000                 
196              RG_PG009         JCT-744          10.561500 28.036313 339.137500 0.516234 0.000000                 
197              RG_PG009         JCT-2300         14.764400 41.414294 400.978500 0.093412 0.000000                 
198              RG_PG009         JCT-2298         12.148400 31.234385 363.725000 0.247204 0.000000                 
199              RG_PG009         JCT-1726         37.637000 41.392271 640.205000 0.361982 0.000000                 
2                RG_PG009         JCT-3576         9.112230 33.535497 315.010500 0.227449 0.000000                 
20               RG_PG009         JCT-3328         13.902100 32.564350 389.093000 0.458235 0.000000                 
200              RG_PG009         JCT-1306         26.155900 26.776614 533.700000 0.148716 0.000000                 
201              RG_PG009         JCT-1726         47.141300 27.840000 716.495000 0.297226 0.000000                 
202              RG_PG009         JCT-110          40.948900 28.481375 667.780000 0.209180 0.000000                 
203              RG_PG009         JCT-1718         10.771100 39.869399 342.486000 0.217377 0.000000                 
204              RG_PG009         JCT-30           44.147200 29.000000 693.370000 0.816178 0.000000                 
205              RG_PG009         JCT-3322         19.705900 32.541820 463.245500 0.184490 0.000000                 
206              RG_PG009         JCT-3270         13.146500 27.851328 378.372000 0.199807 0.000000                 
207              RG_PG009         JCT-2304         17.317900 29.140741 434.271000 0.104152 0.000000                 
208              RG_PG009         JCT-2300         26.126600 28.064704 533.400000 0.088183 0.000000                 
209              RG_PG009         JCT-3444         20.321700 26.606569 470.428000 0.223121 0.000000                 
21               RG_PG009         JCT-3362         19.201300 31.243869 457.276000 0.276267 0.000000                 
210              RG_PG009         JCT-2298         39.278200 27.491159 654.015000 0.099898 0.000000                 
211              RG_PG009         JCT-3126         19.980900 30.640103 466.466000 0.384572 0.000000                 
212              RG_PG009         JCT-1306         38.951200 31.762235 651.290000 0.239325 0.000000                 
213              RG_PG009         JCT-3170         26.534900 30.257154 537.555000 0.392530 0.000000                 
214              RG_PG009         JCT-110          51.478900 31.272041 748.735000 0.393207 0.000000                 
215              RG_PG009         JCT-2260         36.686700 28.000000 632.070000 0.732417 0.000000                 
216              RG_PG009         JCT-30           32.416900 29.000000 594.155000 0.954754 0.000000                 
217              RG_PG009         JCT-1718         62.921500 27.840000 827.775000 0.482036 0.000000                 
218              RG_PG009         JCT-1286         21.899100 38.919221 488.344500 0.391488 0.000000                 
219              RG_PG009         JCT-1284         30.136400 21.884451 572.875000 0.279655 0.000000                 
22               RG_PG009         JCT-3152         19.066800 33.487539 455.671500 0.411302 0.000000                 
220              RG_PG009         JCT-952          21.950000 40.103395 488.912000 0.170701 0.000000                 
221              RG_PG009         JCT-368          28.506300 28.700229 557.165000 0.315459 0.000000                 
222              RG_PG009         JCT-1264         31.457900 26.480990 585.300000 0.154921 0.000000                 
223              RG_PG009         JCT-1266         31.038000 27.578640 581.380000 0.134386 0.000000                 
224              RG_PG009         JCT-1698         38.568200 27.167175 648.080000 0.129756 0.000000                 
225              RG_PG009         JCT-388          33.043900 27.704796 599.875000 0.387244 0.000000                 
226              RG_PG009         JCT-2124         17.126000 31.687894 431.858500 0.103869 0.000000                 
227              RG_PG009         JCT-1264         9.819730 36.249603 327.011500 0.109422 0.000000                 
228              RG_PG009         JCT-1264         34.476900 32.728108 612.740000 0.038054 0.000000                 
229              RG_PG009         JCT-1266         13.903900 29.273786 389.118500 0.089207 0.000000                 
23               RG_PG009         JCT-3520         28.073500 28.210550 552.920000 0.384133 0.000000                 
230              RG_PG009         JCT-1698         18.436600 33.914431 448.077500 0.067932 0.000000                 
231              RG_PG009         JCT-388          18.514900 32.902996 449.029000 0.071399 0.000000                 
232              RG_PG009         JCT-2288         38.609500 33.757648 648.425000 0.572680 0.000000                 
233              RG_PG009         JCT-3760         31.153700 30.296664 582.460000 0.059438 0.000000                 
234              RG_PG009         JCT-1862         35.231300 31.067940 619.410000 0.150566 0.000000                 
235              RG_PG009         JCT-915          14.331700 29.485450 395.059500 0.065339 0.000000                 
236              RG_PG009         JCT-1296         28.989400 28.178854 561.865000 0.166752 0.000000                 
237              RG_PG009         JCT-913          25.993300 29.036317 532.040000 0.274073 0.000000                 
238              RG_PG009         JCT-911          19.124700 32.489421 456.362500 0.471562 0.000000                 
239              RG_PG009         JCT-1292         26.198100 31.011987 534.130000 0.503973 0.000000                 
24               RG_PG009         JCT-3304         10.570600 33.222114 339.283500 0.355176 0.000000                 
240              RG_PG009         JCT-1370         16.168000 32.635587 419.605500 0.605526 0.000000                 
241              RG_PG009         JCT-2404         43.316800 32.149274 686.815000 0.435904 0.000000                 
242              RG_PG009         JCT-2656         15.206700 37.213568 406.940500 0.223996 0.000000                 
243              RG_PG009         JCT-566          16.483900 30.000000 423.685000 0.457698 0.000000                 
244              RG_PG009         JCT-2452         10.652100 28.000000 340.589000 0.268738 0.000000                 
245              RG_PG009         JCT-856          36.579400 29.000000 631.150000 0.146172 0.000000                 
246              RG_PG009         JCT-2288         39.410100 34.989928 655.115000 0.753089 0.000000                 
247              RG_PG009         JCT-1726         22.225400 24.360000 491.970000 0.216342 0.000000                 
248              RG_PG009         JCT-20           30.327700 24.360000 574.690000 0.270803 0.000000                 
249              RG_PG009         JCT-854          30.537300 24.360000 576.670000 0.254691 0.000000                 
25               RG_PG009         JCT-3578         6.243790 34.943145 260.758000 0.312884 0.000000                 
250              RG_PG009         JCT-856          21.064900 32.948640 478.952500 0.067163 0.000000                 
251              RG_PG009         JCT-2912         15.933100 28.000000 416.546000 0.200036 0.000000                 
252              RG_PG009         JCT-326          18.403400 27.840000 447.673500 0.671318 0.000000                 
253              RG_PG009         JCT-1862         30.448600 31.245519 575.835000 0.212121 0.000000                 
254              RG_PG009         JCT-1860         32.082000 29.731434 591.075000 0.197869 0.000000                 
255              RG_PG009         JCT-915          24.790900 31.392255 519.590000 0.243596 0.000000                 
256              RG_PG009         JCT-1296         19.670600 29.118234 462.830000 0.216102 0.000000                 
257              RG_PG009         JCT-1874         19.662400 28.081288 462.734000 0.263971 0.000000                 
258              RG_PG009         JCT-911          14.404600 31.475057 396.063000 0.288094 0.000000                 
259              RG_PG009         JCT-1292         19.887600 32.100608 465.376000 0.143550 0.000000                 
26               RG_PG009         JCT-3506         25.510200 32.512839 527.070000 0.999538 0.000000                 
260              RG_PG009         JCT-2404         29.095700 11.000000 562.895000 0.311212 0.000000                 
261              RG_PG009         JCT-1608         36.296000 28.000000 628.700000 0.484348 0.000000                 
262              RG_PG009         JCT-622          31.724800 33.231499 587.780000 0.452931 0.000000                 
263              RG_PG009         JCT-620          21.845300 32.575280 487.744500 0.278163 0.000000                 
264              RG_PG009         JCT-2584         39.177200 30.411272 653.175000 0.189161 0.000000                 
265              RG_PG009         JCT-378          19.035100 31.279787 455.292500 0.081203 0.000000                 
266              RG_PG009         JCT-378          19.449500 31.206622 460.221500 0.145690 0.000000                 
267              RG_PG009         JCT-380          19.284400 32.822598 458.264500 0.209221 0.000000                 
268              RG_PG009         JCT-382          19.518600 34.744487 461.038000 0.212291 0.000000                 
269              RG_PG009         JCT-706          19.895700 31.823462 465.471500 0.208922 0.000000                 
27               RG_PG009         JCT-3306         38.126600 28.886514 644.360000 0.593480 0.000000                 
270              RG_PG009         JCT-1598         19.094600 32.664709 456.003500 0.162228 0.000000                 
271              RG_PG009         JCT-2406         35.371100 28.000000 620.635000 0.327531 0.000000                 
272              RG_PG009         JCT-622          23.358000 35.030321 504.350000 0.163380 0.000000                 
273              RG_PG009         JCT-620          19.139200 33.671891 456.535500 0.278535 0.000000                 
274              RG_PG009         JCT-620          20.261700 31.962989 469.733000 0.143214 0.000000                 
275              RG_PG009         JCT-2584         18.210400 32.104895 445.320500 0.094155 0.000000                 
276              RG_PG009         JCT-378          22.945700 32.155518 499.877000 0.099199 0.000000                 
277              RG_PG009         JCT-378          23.679800 32.386550 507.810000 0.105567 0.000000                 
278              RG_PG009         JCT-380          20.194000 33.675710 468.947500 0.157043 0.000000                 
279              RG_PG009         JCT-382          20.336100 33.537070 470.594500 0.158216 0.000000                 
28               RG_PG009         JCT-3538         21.498900 31.075585 483.862000 0.291515 0.000000                 
280              RG_PG009         JCT-706          20.626900 30.370411 473.947500 0.236319 0.000000                 
281              RG_PG009         JCT-1598         19.704500 30.458153 463.229500 0.154555 0.000000                 
282              RG_PG009         JCT-1602         45.030400 26.000000 700.270000 0.410321 0.000000                 
283              RG_PG009         JCT-782          17.599300 33.093424 437.785000 0.460911 0.000000                 
284              RG_PG009         ML_60D           20.082000 31.243556 467.645500 0.902896 0.000000                 
285              RG_PG009         JCT-106          20.745900 30.550909 475.312500 0.148347 0.000000                 
286              RG_PG009         JCT-106          20.108200 29.053877 467.950000 0.163879 0.000000                 
287              RG_PG009         JCT-108          21.897100 29.716286 488.322500 0.158659 0.000000                 
288              RG_PG009         JCT-2478         16.528400 29.966299 424.256500 0.182055 0.000000                 
289              RG_PG009         JCT-2480         16.893800 30.962581 428.920500 0.193798 0.000000                 
29               RG_PG009         JCT-3540         8.378140 28.080218 302.056000 0.255109 0.000000                 
290              RG_PG009         JCT-1386         19.849700 30.153076 464.932500 0.205379 0.000000                 
291              RG_PG009         JCT-1388         19.916700 28.972385 465.716500 0.152108 0.000000                 
292              RG_PG009         JCT-1632         20.189500 30.137553 468.895000 0.171029 0.000000                 
293              RG_PG009         JCT-1630         19.444300 29.290671 460.160000 0.171000 0.000000                 
294              RG_PG009         JCT-2224         26.352100 30.568718 535.700000 0.372699 0.000000                 
295              RG_PG009         JCT-3560         27.482500 11.568407 547.065000 0.722112 0.000000                 
296              RG_PG009         JCT-3012         14.659900 26.369027 399.557000 0.574918 0.000000                 
297              RG_PG009         JCT-828          18.493400 22.615291 448.767500 0.534777 0.000000                 
298              RG_PG009         JCT-2458         18.455900 28.413349 448.312000 0.319886 0.000000                 
299              RG_PG009         JCT-1358         18.541000 26.255004 449.344000 0.098282 0.000000                 
3                RG_PG009         JCT-3578         8.604620 32.970223 306.111000 0.363441 0.000000                 
30               RG_PG009         JCT-3300         26.043900 25.510983 532.555000 0.318400 0.000000                 
300              RG_PG009         JCT-1360         17.356900 29.945527 434.759500 0.464822 0.000000                 
301              RG_PG009         JCT-3014         8.820780 34.146358 309.932500 0.542295 0.000000                 
302              RG_PG009         JCT-3016         8.731730 32.960524 308.364000 0.396333 0.000000                 
303              RG_PG009         JCT-3016         8.797110 31.004168 309.516000 0.409696 0.000000                 
304              RG_PG009         JCT-3494         8.585540 33.475326 305.771500 0.244905 0.000000                 
305              RG_PG009         JCT-3496         10.353000 20.000000 335.773500 0.295133 0.000000                 
307              RG_PG009         JCT-828          21.226300 29.375530 480.784500 0.730869 0.000000                 
308              RG_PG009         JCT-2458         18.396700 29.600077 447.593000 0.478499 0.000000                 
309              RG_PG009         JCT-1358         19.550400 27.867805 461.413500 0.442307 0.000000                 
31               RG_PG009         JCT-3298         6.975980 28.575376 275.623500 0.617599 0.000000                 
310              RG_PG009         JCT-1360         17.867900 29.958361 441.113500 0.576000 0.000000                 
312              RG_PG009         JCT-2910         23.675600 30.535140 507.765000 0.313962 0.000000                 
313              RG_PG009         JCT-1422         19.026800 30.296806 455.193500 0.569706 0.000000                 
314              RG_PG009         JCT-1842         19.275700 28.836218 458.161500 0.202049 0.000000                 
315              RG_PG009         JCT-1844         19.363400 30.861811 459.202000 0.230127 0.000000                 
316              RG_PG009         JCT-106          34.112800 30.628678 609.500000 1.822159 0.000000                 
317              RG_PG009         JCT-106          19.290200 33.996691 458.333500 0.121809 0.000000                 
318              RG_PG009         JCT-108          19.908700 30.816406 465.624000 0.211060 0.000000                 