[TITLE]
;;Project Title/Notes

[OPTIONS]
;;Option             Value
FLOW_UNITS           CMS
INFILTRATION         HORTON
FLOW_ROUTING         KINWAVE
LINK_OFFSETS         ELEVATION
MIN_SLOPE            0
ALLOW_PONDING        NO
SKIP_STEADY_STATE    NO

START_DATE           10/20/2014
START_TIME           00:00:00
REPORT_START_DATE    10/20/2014
REPORT_START_TIME    00:00:00
END_DATE             10/20/2014
END_TIME             06:00:00
SWEEP_START          1/1
SWEEP_END            12/31
DRY_DAYS             0
REPORT_STEP          00:15:00
WET_STEP             00:05:00
DRY_STEP             01:00:00
ROUTING_STEP         0:00:30 

INERTIAL_DAMPING     PARTIAL
NORMAL_FLOW_LIMITED  BOTH
FORCE_MAIN_EQUATION  H-W
VARIABLE_STEP        0.75
LENGTHENING_STEP     0
MIN_SURFAREA         0
MAX_TRIALS           0
HEAD_TOLERANCE       0
SYS_FLOW_TOL         5
LAT_FLOW_TOL         5
MINIMUM_STEP         0.5
THREADS              1

[EVAPORATION]
;;Data Source    Parameters
;;-------------- ----------------
CONSTANT         0.0
DRY_ONLY         NO

[RAINGAGES]
;;Name           Format    Interval SCF      Source    
;;-------------- --------- ------ ------ ----------
1                CUMULATIVE 0:05     1.0      TIMESERIES tehranshomal    

[SUBCATCHMENTS]
;;Name           Rain Gage        Outlet           Area     %Imperv  Width    %Slope   CurbLen  SnowPack        
;;-------------- ---------------- ---------------- -------- -------- -------- -------- -------- ----------------
21               1                G2               565      20       90.2     12       0                        
27               1                1                130.28   50       250      10       0                        
28               1                S2               22.42    40       700      6        0                        
29               1                Z1               17.57    30       200      6        0                        
30               1                D2               71.73    50       1392     8        0                        
.1               1                G3               25.73    50       500      8        0                        
32               1                D4               72.49    50       1000     8        0                        
33               1                Z1               44.14    50       500      5        0                        
34               1                Z2               11.01    60       114      4        0                        
36               1                Z3               5        60       660      2        0                        
37               1                Z4               4.44     60       1700     3        0                        
38               1                Z2               6.18     60       64       2        0                        
39               1                Z3               5        60       85       2        0                        
40               1                6                10.66    60       960      3        0                        
41               1                105              17.22    60       660      4        0                        
43               1                Z5               2.89     60       320      0.005    0                        
44               1                104              3.50     60       500      0.005    0                        
45               1                Z4               5        60       500      3        0                        
46               1                Z5               5        95       54       2        0                        
48               1                Z6               6.63     60       500      3        0                        
49               1                102              8.56     60       500      4        0                        
50               1                103              12.65    60       1800     0.005    0                        
51               1                101              6.84     85       620      4        0                        
52               1                Z6               5        95       500      3        0                        
53               1                Z7               1.26     25       500      3        0                        
54               1                Z7               3.34     89       500      3        0                        
55               1                Z8               1.40     60       250      2        0                        
56               1                Z8               5.82     60       200      0.005    0                        
57               1                99               8.57     60       200      4        0                        
58               1                97               7.03     60       200      4        0                        
59               1                Z9               1.81     25       500      2        0                        
60               1                Z10              2.16     95       55       2        0                        
61               1                Z11              2.01     76       500      0.005    0                        
62               1                Z9               4.69     60       500      2        0                        
63               1                Z10              4.72     60       129      2        0                        
64               1                47               6.62     60       500      2        0                        
65               1                35               13.24    60       500      2        0                        
66               1                42               5.94     60       500      2        0                        
67               1                31               9.90     60       200      2        0                        
68               1                Z11              4.27     60       75       0.005    0                        
69               1                Z12              1.96     60       190      0.005    0                        
70               1                Z13              1.82     60       78       0.005    0                        
71               1                Z12              3.74     60       192      0.005    0                        
72               1                Z13              3.61     60       462      3        0                        
73               1                Z14              1.73     60       177      0.005    0                        
74               1                Z15              1.18     60       378      0.005    0                        
75               1                Z16              1.25     95       236      0.005    0                        
76               1                26               9.80     60       170      2        0                        
77               1                25               7.87     60       150      2        0                        
78               1                22               6.94     60       192      2        0                        
79               1                13               4.57     60       585      2        0                        
80               1                20               6.04     60       192      1        0                        
81               1                14               4.26     60       546      1        0                        
82               1                24               6.43     60       130      2        0                        
83               1                23               7.24     60       140      2        0                        
84               1                19               6.73     60       192      1        0                        
85               1                15               4.33     60       535      1        0                        
86               1                18               7.63     60       200      1        0                        
87               1                Z14              6.07     60       170      3        0                        
88               1                10               5.94     60       170      1        0                        
89               1                11               4.56     60       170      1        0                        
90               1                16               4.30     60       525      1        0                        
91               1                12               4.75     60       170      1        0                        
92               1                Z15              6.14     60       360      1        0                        
93               1                8                5.02     60       360      1        0                        
94               1                9                4.85     60       360      1        0                        
95               1                17               3.21     60       360      1        0                        
96               1                Z16              6.91     60       236      1        0                        
98               1                7                10.42    60       236      1        0                        
2                1                D2               710.56   25       3000     10       0                        
3                1                D1               1282.66  20       3000     17       0                        
4                1                5                103.99   25       500      6        0                        

[SUBAREAS]
;;Subcatchment   N-Imperv   N-Perv     S-Imperv   S-Perv     PctZero    RouteTo    PctRouted 
;;-------------- ---------- ---------- ---------- ---------- ---------- ---------- ----------
21               0.035      0.18       3.01       3.03       5          OUTLET    
27               0.05       0.18       3.01       4.03       25         OUTLET    
28               0.05       0.18       1.01       2.03       25         OUTLET    
29               0.025      0.18       1.01       1.03       25         OUTLET    
30               0.023      0.18       3.01       3.03       75         OUTLET    
.1               0.025      0.18       2.01       2.03       25         OUTLET    
32               0.043      0.18       2.01       2.03       75         OUTLET    
33               0.023      0.18       3.01       3.03       75         OUTLET    
34               0.025      0.18       1.01       2.03       25         OUTLET    
36               0.025      0.18       1.01       2.03       25         OUTLET    
37               0.01       0.25       0.05       0.05       25         OUTLET    
38               0.025      0.18       1.01       2.03       25         OUTLET    
39               0.025      0.25       1.01       2.03       25         OUTLET    
40               0.025      0.18       1.01       2.03       25         OUTLET    
41               0.025      0.18       1.01       2.03       25         OUTLET    
43               0.025      0.25       1.01       2.03       25         OUTLET    
44               0.025      0.18       1.01       203        25         OUTLET    
45               0.025      0.25       1.01       2.03       25         OUTLET    
46               0.025      0.18       1.01       2.03       25         OUTLET    
48               0.025      0.18       2.01       2.03       25         OUTLET    
49               0.025      0.18       2.01       2.03       25         OUTLET    
50               0.025      0.18       1.01       2.03       25         OUTLET    
51               0.025      0.25       2.03       2.03       25         OUTLET    
52               0.025      0.18       1.03       2.03       25         OUTLET    
53               0.01       0.25       0.05       0.05       25         OUTLET    
54               0.025      0.18       1.01       2.03       25         OUTLET    
55               0.025      0.25       1.01       2.03       25         OUTLET    
56               0.01       0.26       0.05       0.05       25         OUTLET    
57               0.025      0.18       1.03       2.03       25         OUTLET    
58               0.025      0.18       1.01       2.03       25         OUTLET    
59               0.01       0.1        0.05       0.05       25         OUTLET    
60               0.025      .18        1.01       2.03       25         OUTLET    
61               0.01       0.1        0.05       0.05       25         OUTLET    
62               0.01       0.18       0.05       0.05       25         OUTLET    
63               0.025      0.18       1.01       2.03       25         OUTLET    
64               0.01       .18        1.01       2.03       25         OUTLET    
65               0.01       .18        0.05       0.05       25         OUTLET    
66               0.025      .18        1.1        2.03       25         OUTLET    
67               0.025      0.18       1.01       2.03       25         OUTLET    
68               0.025      0.18       1.01       2.03       25         OUTLET    
69               .023       .18        1.01       2.03       25         OUTLET    
70               0.023      .18        1.01       2.03       25         OUTLET    
71               .023       .18        1.01       2.03       25         OUTLET    
72               0.023      .18        1.01       2.03       25         OUTLET    
73               0.015      0.1        0.05       0.05       25         OUTLET    
74               .023       .18        1.015      2.03       25         OUTLET    
75               0.023      0.18       1.015      2.03       25         OUTLET    
76               0.025      0.18       1.01       2.03       25         OUTLET    
77               0.025      0.18       1.01       2.03       25         OUTLET    
78               .023       .18        1.01       2.03       25         OUTLET    
79               0.025      0.18       1.01       2.03       25         OUTLET    
80               .023       .18        1.01       2.03       25         OUTLET    
81               0.025      0.18       1.01       2.03       25         OUTLET    
82               0.025      0.18       1.01       2.03       25         OUTLET    
83               0.025      0.18       1.01       2.03       25         OUTLET    
84               0.025      0.18       1.05       2.03       25         OUTLET    
85               0.025      .18        1.01       2.03       25         OUTLET    
86               0.025      0.18       1.01       2.03       25         OUTLET    
87               0.015      0.1        2.01       2.03       25         OUTLET    
88               0.015      0.1        1.01       2.03       2.03       OUTLET    
89               0.015      0.1        1.01       2.03       25         OUTLET    
90               0.025      0.18       1.01       2.03       25         OUTLET    
91               0.023      .18        1.015      2.03       25         OUTLET    
92               0.023      .18        2.015      2.03       25         OUTLET    
93               .025       .18        2.015      2.03       25         OUTLET    
94               0.023      .18        2.015      2.03       25         OUTLET    
95               0.023      .18        2.015      2.03       25         OUTLET    
96               0.015      0.18       2.01       2.03       25         OUTLET    
98               .023       .18        2.015      2.03       25         OUTLET    
2                0.035      0.18       2.01       3.03       25         OUTLET    
3                0.035      0.18       2.01       3.03       25         OUTLET    
4                0.035      0.18       2.01       3.03       25         OUTLET    

[INFILTRATION]
;;Subcatchment   MaxRate    MinRate    Decay      DryTime    MaxInfil  
;;-------------- ---------- ---------- ---------- ---------- ----------
21               3.0        0.5        4          7          0         
27               3.0        0.5        4          7          0         
28               3.0        0.5        4          7          0         
29               3.0        0.5        4          7          0         
30               3.0        0.5        4          7          0         
.1               3.0        0.5        4          7          0         
32               3.0        0.5        4          7          0         
33               3.0        0.5        4          7          0         
34               3.0        0.5        4          7          0         
36               3.0        0.5        4          7          0         
37               3.0        0.5        4          7          0         
38               3.0        0.5        4          7          0         
39               3.0        0.5        4          7          0         
40               3.0        0.5        4          7          0         
41               3.0        0.5        4          7          0         
43               3.0        0.5        4          7          0         
44               3.0        0.5        4          7          0         
45               3.0        0.5        4          7          0         
46               3.0        0.5        4          7          0         
48               3.0        0.5        4          7          0         
49               3.0        0.5        4          7          0         
50               3.0        0.5        4          7          0         
51               3.0        0.5        4          7          0         
52               3.0        0.5        4          7          0         
53               3.0        0.5        4          7          0         
54               3.0        0.5        4          7          0         
55               3.0        0.5        4          7          0         
56               3.0        0.5        4          7          0         
57               3.0        0.5        4          7          0         
58               3.0        0.5        4          7          0         
59               3.0        0.5        4          7          0         
60               3.0        0.5        4          7          0         
61               3.0        0.5        4          7          0         
62               3.0        0.5        4          7          0         
63               3.0        0.5        4          7          0         
64               3.0        0.5        4          7          0         
65               3.0        0.5        4          7          0         
66               3.0        0.5        4          7          0         
67               3.0        0.5        4          7          0         
68               3.0        0.5        4          7          0         
69               3.0        0.5        4          7          0         
70               3.0        0.5        4          7          0         
71               3.0        0.5        4          7          0         
72               3.0        0.5        4          7          0         
73               3.0        0.5        4          7          0         
74               3.0        0.5        4          7          0         
75               3.0        0.5        4          7          0         
76               3.0        0.5        4          7          0         
77               3.0        0.5        4          7          0         
78               3.0        0.5        4          7          0         
79               3.0        0.5        4          7          0         
80               3.0        0.5        4          7          0         
81               3.0        0.5        4          7          0         
82               3.0        0.5        4          7          0         
83               3.0        0.5        4          7          0         
84               3.0        0.5        4          7          0         
85               3.0        0.5        4          7          0         
86               3.0        0.5        4          7          0         
87               3.0        0.5        4          7          0         
88               3.0        0.5        4          7          0         
89               3.0        0.5        4          7          0         
90               3.0        0.5        4          7          0         
91               3.0        0.5        4          7          0         
92               3.0        0.5        4          7          0         
93               3.0        0.5        4          7          0         
94               3.0        0.5        4          7          0         
95               3.0        0.5        4          7          0         
96               3.0        0.5        4          7          0         
98               3.0        0.5        4          7          0         
2                3.0        0.5        4          7          0         
3                3.0        0.5        4          7          0         
4                3.0        0.5        4          7          0         

[JUNCTIONS]
;;Name           Elevation  MaxDepth   InitDepth  SurDepth   Aponded   
;;-------------- ---------- ---------- ---------- ---------- ----------
G2               1429.49    0          0          0          0         
G3               1417.94    0          0          0          0         
Z1               1408.26    0          0          0          0         
D2               1429.76    0          0          0          0         
D3               1424.66    0          0          0          0         
D4               1413.66    0          0          0          0         
S1               1424.26    0          0          0          0         
S2               1421.26    0          0          0          0         
Z2               1393.86    0          0          0          0         
Z3               1383.96    0          0          0          0         
Z4               1371.06    0          0          0          0         
Z5               1369.71    0          0          0          0         
Z6               1366.41    0          0          0          0         
Z7               1363.82    0          0          0          0         
Z8               1354.34    0          0          0          0         
Z9               1348.94    0          0          0          0         
Z10              1347.17    0          0          0          0         
Z11              1342.5     0          0          0          0         
Z12              1336.76    0          0          0          0         
Z13              1334.67    0          0          0          0         
Z14              1330.21    0          0          0          0         
Z15              1317.69    0          0          0          0         
G1               1442.88    0          1.5        0          0         
D1               1439       0          0          0          0         
1                1434       0          0          0          0         
5                1444       0          0          0          0         
6                1397       0          0          0          0         
7                1313       0          0          0          0         
8                1320       0          0          0          0         
9                1323       0          0          0          0         
10               1333       0          0          0          0         
11               1336       0          0          0          0         
12               1338       0          0          0          0         
13               1337       0          0          0          0         
14               1339       0          0          0          0         
15               1341       0          0          0          0         
16               1343       0          0          0          0         
17               1325       0          0          0          0         
18               1345       0          0          0          0         
19               1343       0          0          0          0         
20               1341       0          0          0          0         
22               1338       0          0          0          0         
23               1351       0          0          0          0         
24               1349       0          0          0          0         
25               1347       0          0          0          0         
26               1344.5     0          0          0          0         
31               1358       0          0          0          0         
35               1355       0          0          0          0         
42               1353       0          0          0          0         
47               1351       0          0          0          0         
97               1382       0          0          0          0         
99               1378       0          0          0          0         
100              1376       0          0          0          0         
101              1373       0          0          0          0         
102              1369       0          0          0          0         
103              1374       0          0          0          0         
104              1372       0          0          0          0         
105              1374       0          0          0          0         

[OUTFALLS]
;;Name           Elevation  Type       Stage Data       Gated    Route To        
;;-------------- ---------- ---------- ---------------- -------- ----------------
106              0          FREE                        NO                       

[STORAGE]
;;Name           Elev.    MaxDepth   InitDepth  Shape      Curve Name/Params            N/A      Fevap    Psi      Ksat     IMD     
;;-------------- -------- ---------- ----------- ---------- ---------------------------- -------- --------          -------- --------
Z16              1311.41  10         0          FUNCTIONAL 1000      0         0        0        0       

[CONDUITS]
;;Name           From Node        To Node          Length     Roughness  InOffset   OutOffset  InitFlow   MaxFlow   
;;-------------- ---------------- ---------------- ---------- ---------- ---------- ---------- ---------- ----------
GOLAB01          G2               G3               1050       0.025      1429.490   1417.940   1.5        0         
GOLAB02          G3               Z1               880        0.01       1417.040   1408.260   1.5        0         
DARBAND01        D2               D3               823.08     0.025      1429.760   1424.660   1.5        0         
DARBAND02        D3               D4               676.03     0.02       1424.660   1413.660   1.5        0         
DARBAND03        D4               Z1               540        0.02       1413.660   1408.260   0          0         
SAADABAD01       S1               S2               300        0.025      1424.260   1421.260   1.5        0         
SAADABAD02       S2               Z1               1300       0.01       1421.260   1408.260   1.5        0         
zargandeh03      Z3               Z4               860        0.025      1383.960   1371.060   1.5        0         
zargandeh04      Z4               Z5               90         0.02       1371.060   1369.710   1.5        0         
zargandeh05      Z5               Z6               220        0.02       1369.710   1366.410   1.5        0         
zargandeh06      Z6               Z7               80         0.025      1366.410   1363.820   1.5        0         
zargandeh07      Z7               Z8               224        0.025      1363.820   1354.340   1.5        0         
zargandeh08      Z8               Z9               166        0.025      1354.340   1348.940   1.5        0         
zargandeh09      Z9               Z10              57         0.025      1348.940   1347.170   1.5        0         
zargandeh10      Z10              Z11              97         0.025      1347.170   1342.500   1.5        0         
zargandeh11      Z11              Z12              192        0.025      1342.500   1336.760   1.5        0         
zargandeh12      Z12              Z13              78         0.025      1336.760   1334.670   1.5        0         
zargandeh01      Z1               Z2               960        0.020      1408.260   1393.860   1.5        0         
zargandeh02      Z2               Z3               660        0.02       1393.860   1383.960   1.5        0         
zargandeh13      Z13              Z14              177        0.025      1334.670   1330.210   1.5        0         
zargandeh14      Z14              Z15              378        0.025      1330.210   1317.690   1.5        0         
zargandeh15      Z15              Z16              236        0.025      1317.690   1311.410   1.5        0         
1                G1               G2               2332.95    0.020      1442.880   1429.490   1.5        0         
2                D1               D2               2983.01    0.029      1439.000   1429.760   1.5        0         
3                1                S1               658.13     0.025      1434.000   1424.260   1.5        0         
4                5                1                856.44     0.030      1444.000   1434.000   1.5        0         
5                7                Z16              336.90     0.01       1313.000   1311.410   0          0         
6                9                8                281.35     0.01       1323.000   1320.000   0          0         
7                8                Z15              357.67     0.01       1320.000   1317.690   0          0         
8                17               9                269.23     0.01       1325.000   1323.000   0          0         
9                12               11               243.91     0.01       1338.000   1336.000   0          0         