[TITLE]
;;Project Title/Notes

[OPTIONS]
;;Option             Value
FLOW_UNITS           LPS
INFILTRATION         HORTON
FLOW_ROUTING         DYNWAVE
LINK_OFFSETS         DEPTH
MIN_SLOPE            0
ALLOW_PONDING        YES
SKIP_STEADY_STATE    NO

IGNORE_SNOWMELT      YES
IGNORE_GROUNDWATER   YES
START_DATE           01/03/2025
START_TIME           00:00:00
REPORT_START_DATE    01/03/2025
REPORT_START_TIME    00:00:00
END_DATE             01/04/2025
END_TIME             00:00:00
SWEEP_START          01/01
SWEEP_END            12/31
DRY_DAYS             5.000000
REPORT_STEP          00:05:00
WET_STEP             00:01:00
DRY_STEP             00:01:00
ROUTING_STEP         0:00:10 

INERTIAL_DAMPING     NONE
NORMAL_FLOW_LIMITED  BOTH
FORCE_MAIN_EQUATION  D-W
VARIABLE_STEP        0.75
LENGTHENING_STEP     10
MIN_SURFAREA         1.14
MAX_TRIALS           8
HEAD_TOLERANCE       0.000100
SYS_FLOW_TOL         5
LAT_FLOW_TOL         5
MINIMUM_STEP         0
THREADS              1

[EVAPORATION]
;;Data Source    Parameters
;;-------------- ----------------
CONSTANT         5.770000
DRY_ONLY         NO

[RAINGAGES]
;;Name           Format    Interval SCF      Source    
;;-------------- --------- ------ ------ ----------
RG-1             INTENSITY 0.016667 1.000000 TIMESERIES 10YR-90MIN      

[SUBCATCHMENTS]
;;Name           Rain Gage        Outlet           Area     %Imperv  Width    %Slope   CurbLen  SnowPack        
;;-------------- ---------------- ---------------- -------- -------- -------- -------- -------- ----------------
WS1-SC100        RG-1             Z1.7-MH-04       0.209684 40.000000 39.069714 3.299111 0.000000                 
WS1-SC101        RG-1             Z1.7-MH-03       0.202663 40.000000 40.445175 1.560403 0.000000                 
WS1-SC102        RG-1             Z1.7-MH-02       0.219069 40.000000 43.816279 1.699943 0.000000                 
WS1-SC103        RG-1             Z1.7-MH-02       0.207367 40.000000 41.453946 2.361442 0.000000                 
WS1-SC104        RG-1             Z1.1-MH-09       0.063338 40.000000 23.396197 2.775974 0.000000                 
WS1-SC105        RG-1             Z1.1-MH-10       0.063617 40.000000 22.988905 3.222522 0.000000                 
WS1-SC106        RG-1             Z1.6-MH-01       0.145729 40.000000 24.701090 3.109171 0.000000                 
WS1-SC107        RG-1             Z1.3-MH-08       0.109099 60.000000 31.374723 2.043370 0.000000                 
WS1-SC108        RG-1             Z1.1-MH-16       0.118382 60.000000 32.335684 2.038548 0.000000                 
WS1-SC109        RG-1             Z1.6-MH-04       0.170959 60.000000 33.262253 1.710309 0.000000                 
WS1-SC110        RG-1             Z1.1-MH-15       0.184171 60.000000 35.476544 1.974567 0.000000                 
WS1-SC111        RG-1             Z1.6-MH-02       0.137278 60.000000 32.843594 1.703338 0.000000                 
WS1-SC112        RG-1             Z1.6-MH-01       0.152960 60.000000 33.344405 2.358955 0.000000                 
WS1-SC113        RG-1             Z1.1-MH-13       0.133967 60.000000 31.862730 2.237476 0.000000                 
WS1-SC114        RG-1             Z1.1-MH-21       0.102098 60.000000 28.982484 2.870171 0.000000                 
WS1-SC115        RG-1             Z1.9-MH-06       0.108894 60.000000 25.897461 2.802713 0.000000                 
WS1-SC116        RG-1             Z1.1-MH-20       0.139774 60.000000 32.881815 3.123798 0.000000                 
WS1-SC117        RG-1             Z1.9-MH-03       0.163885 60.000000 36.278367 3.244922 0.000000                 
WS1-SC118        RG-1             Z1.1-MH-19       0.130353 60.000000 30.569394 3.197451 0.000000                 
WS1-SC119        RG-1             Z1.9-MH-02       0.172538 60.000000 39.782065 3.299511 0.000000                 
WS1-SC120        RG-1             Z1.1-MH-18       0.089862 60.000000 26.946937 2.679258 0.000000                 
WS1-SC121        RG-1             Z1.1-MH-19       0.104743 60.000000 29.875476 3.230136 0.000000                 
WS1-SC122        RG-1             Z1.9-MH-01       0.111327 60.000000 30.356533 2.366468 0.000000                 
WS1-SC123        RG-1             Z1.9-MH-02       0.202111 40.000000 37.328614 5.330866 0.000000                 
WS1-SC124        RG-1             Z1.3-MH-07       0.339457 40.000000 33.815804 5.439043 0.000000                 
WS1-SC125        RG-1             Z1.3-MH-07       0.333768 40.000000 35.275774 6.260037 0.000000                 
WS1-SC126        RG-1             Z1.3-MH-04       0.185946 40.000000 34.905223 22.271255 0.000000                 
WS1-SC127        RG-1             Z1.3-MH-05       0.400264 40.000000 39.922807 13.604285 0.000000                 
WS1-SC128        RG-1             Z1.5-MH-01       0.137342 40.000000 31.000532 10.398671 0.000000                 
WS1-SC129        RG-1             Z1.5-MH-01       0.231774 40.000000 44.399992 12.818367 0.000000                 
WS1-SC130        RG-1             Z1.1-MH-11       0.479951 60.000000 48.705676 2.670417 0.000000                 
WS1-SC131        RG-1             Z1.1-MH-10       0.580459 60.000000 44.847206 2.825125 0.000000                 
WS1-SC132        RG-1             Z1.1-MH-08       0.309345 60.000000 28.931318 3.760318 0.000000                 
WS1-SC133        RG-1             Z1.3-MH-07       0.060783 40.000000 21.454772 4.200529 0.000000                 
WS1-SC134        RG-1             Z1.3-MH-08       0.063417 40.000000 22.125554 5.175313 0.000000                 
WS1-SC135        RG-1             Z1.7-MH-04       0.116414 40.000000 25.407253 2.153333 0.000000                 
WS1-SC136        RG-1             Z1.6-MH-04       0.109412 40.000000 24.475868 4.262711 0.000000                 
WS1-SC137        RG-1             Z1.7-MH-03       0.109686 40.000000 25.337625 1.643656 0.000000                 
WS1-SC138        RG-1             Z1.6-MH-03       0.102293 40.000000 24.528303 3.579240 0.000000                 
WS1-SC139        RG-1             Z1.7-MH-02       0.089669 40.000000 24.382607 2.733953 0.000000                 
WS1-SC140        RG-1             Z1.6-MH-02       0.084506 40.000000 25.722656 1.945283 0.000000                 
WS1-SC141        RG-1             Z1.5-MH-01       0.136394 40.000000 33.913675 8.008738 0.000000                 
WS1-SC142        RG-1             Z1.3-MH-01       0.198349 40.000000 42.168460 7.228381 0.000000                 
WS1-SC143        RG-1             Z1.5-MH-01       0.171160 40.000000 33.072030 8.023128 0.000000                 
WS1-SC144        RG-1             Z1.1-MH-01       0.126346 40.000000 27.558958 4.081317 0.000000                 
WS1-SC145        RG-1             Z1.5-MH-02       0.187307 40.000000 34.737128 5.953940 0.000000                 
WS1-SC146        RG-1             Z1.3-MH-02       0.187158 40.000000 34.572372 6.109102 0.000000                 
WS1-SC147        RG-1             Z1.5-MH-02       0.191849 40.000000 35.395134 6.598158 0.000000                 
WS1-SC148        RG-1             Z1.1-MH-02       0.189252 40.000000 35.234244 3.065621 0.000000                 
WS1-SC149        RG-1             Z1.5-MH-03       0.201329 40.000000 34.982768 2.725498 0.000000                 
WS1-SC150        RG-1             Z1.3-MH-03       0.200920 40.000000 34.028790 4.869531 0.000000                 
WS1-SC151        RG-1             Z1.5-MH-03       0.205987 40.000000 35.985762 5.342092 0.000000                 
WS1-SC152        RG-1             Z1.1-MH-02       0.202384 40.000000 34.965799 2.277763 0.000000                 
WS1-SC153        RG-1             Z1.5-MH-04       0.148632 40.000000 34.395224 2.212184 0.000000                 
WS1-SC154        RG-1             Z1.3-MH-04       0.165763 40.000000 34.215202 5.062667 0.000000                 
WS1-SC155        RG-1             Z1.5-MH-04       0.161970 40.000000 35.794215 4.335245 0.000000                 
WS1-SC156        RG-1             Z1.1-MH-03       0.147559 40.000000 35.439615 2.360150 0.000000                 
WS1-SC157        RG-1             Z1.5-MH-05       0.120456 40.000000 33.720141 2.151427 0.000000                 
WS1-SC158        RG-1             Z1.3-MH-04       0.143469 40.000000 33.364117 4.369785 0.000000                 
WS1-SC159        RG-1             Z1.5-MH-04       0.137553 40.000000 34.508229 4.202610 0.000000                 
WS1-SC160        RG-1             Z1.1-MH-04       0.113285 40.000000 31.524968 2.151497 0.000000                 
WS1-SC161        RG-1             Z1.9-MH-01       0.176613 40.000000 34.307366 3.833586 0.000000                 
WS1-SC163        RG-1             Z1.1-MH-11       0.445170 20.000000 27.523491 3.134059 0.000000                 
WS1-SC164        RG-1             Z1.1-MH-12       0.423826 20.000000 45.389154 3.530706 0.000000                 
WS1-SC165        RG-1             Z1.1-MH-12       0.138745 20.000000 32.311625 2.487537 0.000000                 
WS1-SC166        RG-1             Z1.2-MH-03       0.147158 20.000000 34.889656 2.555788 0.000000                 
WS1-SC167        RG-1             Z1.1-MH-11       0.184188 20.000000 37.275691 2.327901 0.000000                 
WS1-SC168        RG-1             Z1.1-MH-11       0.229722 20.000000 37.946385 2.618672 0.000000                 
WS1-SC169        RG-1             Z1.2-MH-13       0.353864 55.199110 42.186125 3.895585 0.000000                 
WS1-SC170        RG-1             Z1.4-MH-02       0.179602 62.717700 34.735881 4.214165 0.000000                 
WS1-SC171        RG-1             Z1.2-MH-15       0.174661 52.513020 38.592809 4.435114 0.000000                 
WS1-SC172        RG-1             Z1.11-MH-01      0.210044 46.712994 38.634438 4.398048 0.000000                 
WS1-SC173        RG-1             Z1.2-MH-15       0.287885 29.389542 45.760920 3.834479 0.000000                 
WS1-SC174        RG-1             Z1.4-MH-08       0.121165 67.855099 20.008935 4.793581 0.000000                 
WS1-SC175        RG-1             Z1.2-MH-18       0.194152 62.278423 34.313689 4.948687 0.000000                 
WS1-SC21         RG-1             Z1.1-MH-12       1.377166 20.000000 101.431935 2.828885 0.000000                 
WS1-SC23         RG-1             Z1.4-MH-03       0.447991 30.200520 58.848828 4.122474 0.000000                 
WS1-SC31         RG-1             Z1.1-MH-14       0.144930 60.000000 33.848533 2.003498 0.000000                 
WS1-SC311        RG-1             Z1.1-MH-25       0.126202 60.000000 32.434333 11.422285 0.000000                 
WS1-SC312        RG-1             Z1.1-MH-25       0.114349 60.000000 24.571360 13.646289 0.000000                 
WS1-SC313        RG-1             Z1.1-MH-23       0.154368 60.000000 34.810555 7.688708 0.000000                 
WS1-SC314        RG-1             Z1.1-MH-24       0.215699 60.000000 36.287155 9.304133 0.000000                 
WS1-SC315        RG-1             Z1.9-MH-07       0.197110 60.000000 30.413689 15.744476 0.000000                 
WS1-SC32         RG-1             Z1.4-MH-04       0.433579 44.865793 60.851264 4.065992 0.000000                 
WS1-SC34         RG-1             Z1.1-MH-08       0.279341 40.000000 25.206285 3.788889 0.000000                 
WS1-SC35         RG-1             Z1.4-MH-06       0.301105 25.548102 49.812277 4.481512 0.000000                 
WS1-SC351        RG-1             Z1.2-MH-30       0.259637 80.000000 24.641248 6.513087 0.000000                 
WS1-SC352        RG-1             Z1.2-MH-27       0.149550 80.000000 24.233263 6.473069 0.000000                 
WS1-SC36         RG-1             Z1.7-MH-01       0.163532 40.000000 25.212779 3.352354 0.000000                 
WS1-SC37         RG-1             Z1.1-MH-05       0.159561 20.000000 20.230881 3.821561 0.000000                 
WS1-SC382        RG-1             Z1.3-MH-01       0.178956 80.000000 11.977202 7.156613 0.000000                 
WS1-SC383        RG-1             Z1.5-MH-01       0.067926 80.000000 15.934887 5.894912 0.000000                 
WS1-SC384        RG-1             Z1.1-MH-01       0.117792 80.000000 10.981538 3.399287 0.000000                 
WS1-SC385        RG-1             Z1.3-MH-02       0.086754 80.000000 11.995162 4.800913 0.000000                 
WS1-SC386        RG-1             Z1.5-MH-02       0.086351 80.000000 15.994277 4.048996 0.000000                 
WS1-SC387        RG-1             Z1.1-MH-02       0.152982 80.000000 14.994063 2.386671 0.000000                 
WS1-SC388        RG-1             Z1.1-MH-04       0.115905 80.000000 14.872460 2.381802 0.000000                 
WS1-SC389        RG-1             Z1.3-MH-04       0.144101 80.000000 13.645105 3.975561 0.000000                 
WS1-SC390        RG-1             Z1.5-MH-04       0.107255 80.000000 15.993711 2.828062 0.000000                 
WS1-SC391        RG-1             Z1.1-MH-08       0.096837 80.000000 14.899923 3.241653 0.000000                 
WS1-SC392        RG-1             Z1.3-MH-06       0.116775 80.000000 14.957995 3.003444 0.000000                 
WS1-SC393        RG-1             Z1.5-MH-07       0.082723 80.000000 15.899194 2.654345 0.000000                 
WS1-SC394        RG-1             Z1.8-MH-01       0.137645 80.000000 15.947655 1.642690 0.000000                 
WS1-SC395        RG-1             Z1.10-MH-01      0.108035 80.000000 15.954274 2.175200 0.000000                 
WS1-SC396        RG-1             Z1.1-MH-09       0.077812 80.000000 11.948561 2.755342 0.000000                 
WS1-SC397        RG-1             Z1.7-MH-02       0.111214 80.000000 15.989234 2.294038 0.000000                 
WS1-SC398        RG-1             Z1.7-MH-04       0.100886 80.000000 15.994308 2.433910 0.000000                 
WS1-SC399        RG-1             Z1.3-MH-07       0.127611 80.000000 14.974433 3.115024 0.000000                 
WS1-SC400        RG-1             Z1.1-MH-11       0.079421 80.000000 11.991119 2.819181 0.000000                 
WS1-SC401        RG-1             Z1.6-MH-01       0.086211 80.000000 15.985652 2.009913 0.000000                 
WS1-SC402        RG-1             Z1.6-MH-03       0.143507 80.000000 15.987969 2.305375 0.000000                 
WS1-SC403        RG-1             Z1.9-MH-02       0.163195 80.000000 15.883926 3.986161 0.000000                 
WS1-SC404        RG-1             Z1.9-MH-04       0.197457 80.000000 15.960137 4.798363 0.000000                 
WS1-SC405        RG-1             Z1.3-MH-08       0.125315 80.000000 15.514256 2.927118 0.000000                 
WS1-SC41         RG-1             Z1.9-MH-01       0.132391 60.000000 35.284320 3.290570 0.000000                 
WS1-SC416        RG-1             Z1.1-MH-17       0.079862 80.000000 15.829241 2.053335 0.000000                 
WS1-SC417        RG-1             Z1.1-MH-12       0.083516 80.000000 11.991180 2.479747 0.000000                 
WS1-SC418        RG-1             Z1.1-MH-16       0.069026 80.000000 15.624576 2.491017 0.000000                 
WS1-SC419        RG-1             Z1.1-MH-12       0.122297 80.000000 16.040380 3.268803 0.000000                 
WS1-SC42         RG-1             Z1.7-MH-01       0.146387 40.000000 29.076860 2.743606 0.000000                 
WS1-SC420        RG-1             Z1.2-MH-04       0.095940 80.000000 13.913741 3.343197 0.000000                 
WS1-SC421        RG-1             Z1.2-MH-08       0.071849 80.000000 14.561318 2.870117 0.000000                 
WS1-SC422        RG-1             Z1.2-MH-11       0.092365 80.000000 16.794645 2.475900 0.000000                 
WS1-SC423        RG-1             Z1.2-MH-13       0.076661 80.000000 16.941509 3.874947 0.000000                 
WS1-SC425        RG-1             Z1.1-MH-20       0.044135 80.000000 13.327606 3.338461 0.000000                 
WS1-SC426        RG-1             Z1.1-MH-23       0.081728 80.000000 14.328184 3.363727 0.000000                 
WS1-SC427        RG-1             Z1.1-MH-23       0.083507 80.000000 15.343584 3.363727 0.000000                 
WS1-SC428        RG-1             Z1.1-MH-25       0.075315 80.000000 15.263917 3.252539 0.000000                 
WS1-SC429        RG-1             Z1.1-MH-26       0.040464 80.000000 12.806824 4.788844 0.000000                 
WS1-SC430        RG-1             Z1.1-MH-28       0.067438 80.000000 14.449972 5.530337 0.000000                 
WS1-SC431        RG-1             Z1.2-MH-26       0.048810 80.000000 10.316221 5.594190 0.000000                 
WS1-SC441        RG-1             Z1.2-MH-01       0.022471 80.000000 11.992269 3.365510 0.000000                 
WS1-SC460        RG-1             Z1.4-MH-03       0.163051 80.000000 19.967677 3.871842 0.000000                 
WS1-SC461        RG-1             Z1.4-MH-04       0.136578 80.000000 19.981554 4.238645 0.000000                 
WS1-SC462        RG-1             Z1.12-MH-01      0.117915 80.000000 19.992824 4.469537 0.000000                 
WS1-SC463        RG-1             Z1.2-MH-14       0.107784 80.000000 15.772623 3.731166 0.000000                 
WS1-SC464        RG-1             Z1.11-MH-01      0.133201 80.000000 19.989567 4.423891 0.000000                 
WS1-SC465        RG-1             Z1.2-MH-17       0.078237 80.000000 14.179779 3.914939 0.000000                 
WS1-SC466        RG-1             Z1.2-MH-19       0.103454 80.000000 19.829517 5.369847 0.000000                 
WS1-SC467        RG-1             Z1.4-MH-08       0.130328 80.000000 19.818681 4.852479 0.000000                 
WS1-SC468        RG-1             Z1.13-MH-03      0.219568 80.000000 19.899066 4.377468 0.000000                 
WS1-SC469        RG-1             Z1.4-MH-06       0.139319 80.000000 19.989133 4.494074 0.000000                 
WS1-SC50         RG-1             Z1.5-MH-06       0.148362 40.000000 33.079305 2.029102 0.000000                 
WS1-SC501        RG-1             Z1.2-MH-01       0.016769 80.000000 11.567110 3.219626 0.000000                 
WS1-SC506        RG-1             Z1.2-MH-24       0.025435 80.000000 11.265731 5.015141 0.000000                 
WS1-SC507        RG-1             Z1.2-MH-23       0.019671 80.000000 10.661582 5.394559 0.000000                 
WS1-SC508        RG-1             Z1.2-MH-21       0.042230 80.000000 12.148354 5.613405 0.000000                 
WS1-SC514        RG-1             Z1.11-MH-01      0.088524 80.000000 19.870429 3.731166 0.000000                 
WS1-SC515        RG-1             Z1.1-MH-22       0.064176 80.000000 15.993660 3.363727 0.000000                 
WS1-SC516        RG-1             Z1.1-MH-10       0.020240 80.000000 11.946275 2.294038 0.000000                 
WS1-SC517        RG-1             Z1.1-MH-09       0.042780 80.000000 15.966268 2.755342 0.000000                 
WS1-SC518        RG-1             Z1.5-MH-01       0.060153 80.000000 11.957635 5.894912 0.000000                 
WS1-SC54         RG-1             Z1.5-MH-07       0.150895 40.000000 33.608782 3.689519 0.000000                 
WS1-SC545        RG-1             Z1.12-MH-01      0.529782 15.785819 49.057408 4.122474 0.000000                 
WS1-SC546        RG-1             Z1.12-MH-01      0.194290 20.000000 15.350290 4.122474 0.000000                 
WS1-SC547        RG-1             Z1.4-MH-03       0.079064 20.000000 16.934663 4.122474 0.000000                 
WS1-SC548        RG-1             Z1.2-MH-05       0.127707 20.000000 14.962989 4.122474 0.000000                 
WS1-SC549        RG-1             Z1.4-MH-05       0.064848 80.000000 19.949365 4.423891 0.000000                 
WS1-SC557        RG-1             Z1.5-MH-05       0.089414 80.000000 15.970880 2.654345 0.000000                 
WS1-SC558        RG-1             Z1.8-MH-01       0.079058 80.000000 14.515913 1.642690 0.000000                 
WS1-SC559        RG-1             Z1.1-MH-12       0.017829 80.000000 11.808219 2.479747 0.000000                 
WS1-SC56         RG-1             Z1.3-MH-01       0.553784 40.000000 47.398541 12.268822 0.000000                 
WS1-SC572        RG-1             Z1.4-MH-07       0.106160 80.000000 19.726634 4.494074 0.000000                 
WS1-SC573        RG-1             Z1.2-MH-17       0.087325 80.000000 14.898446 3.914939 0.000000                 
WS1-SC574        RG-1             Z1.2-MH-16       0.076263 80.000000 14.282757 3.914939 0.000000                 
WS1-SC575        RG-1             Z1.1-MH-25       0.061293 80.000000 14.190421 3.252539 0.000000                 
WS1-SC576        RG-1             Z1.1-MH-20       0.042444 80.000000 13.782218 3.338461 0.000000                 
WS1-SC577        RG-1             Z1.1-MH-20       0.051871 80.000000 12.776474 3.338461 0.000000                 
WS1-SC578        RG-1             Z1.1-MH-20       0.034158 80.000000 13.364145 3.338461 0.000000                 
WS1-SC579        RG-1             Z1.2-MH-13       0.073834 80.000000 16.473651 3.874947 0.000000                 
WS1-SC580        RG-1             Z1.1-MH-05       0.084564 80.000000 14.950563 3.241653 0.000000                 
WS1-SC581        RG-1             Z1.1-MH-08       0.071815 80.000000 12.390909 3.241653 0.000000                 
WS1-SC583        RG-1             Z1.5-MH-03       0.092643 80.000000 15.994103 2.828062 0.000000                 
WS1-SC59         RG-1             Z1.1-MH-24       0.234101 60.000000 38.686942 16.161797 0.000000                 
WS1-SC595        RG-1             Z1.2-MH-08       0.058221 80.000000 14.323988 2.870117 0.000000                 
WS1-SC596        RG-1             Z1.2-MH-11       0.060041 80.000000 14.217828 2.475900 0.000000                 
WS1-SC597        RG-1             Z1.1-MH-16       0.087897 80.000000 15.419328 2.491017 0.000000                 
WS1-SC598        RG-1             Z1.1-MH-16       0.061724 80.000000 15.551308 2.491017 0.000000                 
WS1-SC599        RG-1             Z1.6-MH-01       0.074483 80.000000 15.986383 2.009913 0.000000                 
WS1-SC600        RG-1             Z1.7-MH-02       0.063856 80.000000 15.970199 2.294038 0.000000                 
WS1-SC601        RG-1             Z1.7-MH-04       0.088380 80.000000 15.980975 2.433910 0.000000                 
WS1-SC602        RG-1             Z1.5-MH-07       0.054785 80.000000 15.932033 2.654345 0.000000                 
WS1-SC72         RG-1             Z1.3-MH-06       0.720766 40.000000 73.931987 12.419274 0.000000                 
WS1-SC73         RG-1             Z1.1-MH-05       0.415063 40.000000 60.187304 3.738041 0.000000                 
WS1-SC75         RG-1             Z1.1-MH-09       0.916317 60.000000 65.927276 3.608564 0.000000                 
WS1-SC80         RG-1             Z1.2-MH-25       0.155453 20.000000 16.806616 4.933156 0.000000                 
WS1-SC84         RG-1             Z1.12-MH-01      0.546225 49.821828 56.682716 4.438499 0.000000                 
WS1-SC85         RG-1             Z1.4-MH-03       1.177776 55.624672 91.388027 4.372322 0.000000                 
WS1-SC89         RG-1             Z1.2-MH-03       0.498441 44.289443 56.712120 3.158276 0.000000                 
WS1-SC91         RG-1             Z1.2-MH-07       0.797071 54.499800 87.758306 2.870196 0.000000                 
WS1-SC93         RG-1             Z1.5-MH-07       0.147534 40.000000 35.081048 3.475386 0.000000                 
WS1-SC94         RG-1             Z1.8-MH-03       0.162088 40.000000 32.883430 1.802756 0.000000                 
WS1-SC95         RG-1             Z1.1-MH-01       0.449147 40.000000 61.804712 6.598803 0.000000                 
WS1-SC96         RG-1             Z1.1-MH-02       0.433380 40.000000 59.165011 3.037139 0.000000                 
WS1-SC97         RG-1             Z1.1-MH-06       0.286597 40.000000 36.115130 4.100016 0.000000                 
WS1-SC98         RG-1             Z1.10-MH-01      0.259001 40.000000 24.809609 2.486686 0.000000                 
WS1-SC99         RG-1             Z1.3-MH-07       0.122906 40.000000 25.044411 3.424832 0.000000                 
WS2-SC10         RG-1             Z2.3-MH-04       0.415260 40.000000 39.447771 9.233260 0.000000                 
WS2-SC11         RG-1             Z2.3-MH-07       0.304538 60.000000 39.137052 5.417564 0.000000                 
WS2-SC12         RG-1             Z2.8-MH-01       0.316447 51.796574 44.078770 4.152528 0.000000                 
WS2-SC14         RG-1             Z2.6-MH-04       0.406170 50.082281 51.078796 4.620044 0.000000                 
WS2-SC16         RG-1             Z2.6-MH-01       0.307480 25.282258 32.729903 5.163131 0.000000                 
WS2-SC162        RG-1             Z2.1-MH-04       1.966508 20.000000 95.450816 5.283033 0.000000                 
WS2-SC2          RG-1             Z2.3-MH-18       0.151461 20.000000 13.025694 13.202421 0.000000                 
WS2-SC217        RG-1             Z2.1-MH-18       0.481819 60.000000 35.880092 4.211453 0.000000                 
WS2-SC218        RG-1             Z2.1-MH-14       0.153923 60.000000 31.856515 3.960231 0.000000                 
WS2-SC219        RG-1             Z2.3-MH-13       0.198211 60.000000 39.938546 4.231799 0.000000                 
WS2-SC22         RG-1             Z2.7-MH-01       0.439979 36.199446 64.155073 4.122474 0.000000                 
WS2-SC220        RG-1             Z2.1-MH-11       0.162558 60.000000 31.102602 4.046521 0.000000                 
WS2-SC221        RG-1             Z2.1-MH-12       0.248981 60.000000 32.742100 3.250561 0.000000                 
WS2-SC222        RG-1             Z2.9-MH-01       0.233256 60.000000 39.949899 4.905875 0.000000                 
WS2-SC223        RG-1             Z2.1-MH-09       0.115623 60.000000 28.464442 5.503695 0.000000                 
WS2-SC224        RG-1             Z2.3-MH-08       0.185445 60.000000 39.662632 7.214279 0.000000                 
WS2-SC225        RG-1             Z2.1-MH-06       0.121996 60.000000 29.656751 5.947900 0.000000                 
WS2-SC226        RG-1             Z2.1-MH-08       0.211680 60.000000 31.817940 3.739187 0.000000                 
WS2-SC227        RG-1             Z2.3-MH-01       0.194028 60.000000 32.245771 7.164658 0.000000                 
WS2-SC228        RG-1             Z2.4-MH-06       0.265268 42.164468 42.818290 4.813905 0.000000                 
WS2-SC229        RG-1             Z2.2-MH-14       0.372740 39.071529 51.656710 4.771196 0.000000                 
WS2-SC230        RG-1             Z2.4-MH-06       0.245455 49.668862 38.627480 4.742513 0.000000                 
WS2-SC231        RG-1             Z2.4-MH-02       0.161718 60.893397 23.553414 4.708003 0.000000                 
WS2-SC232        RG-1             Z2.2-MH-09       0.257066 49.681840 33.493753 4.422389 0.000000                 
WS2-SC233        RG-1             Z2.4-MH-04       0.231947 53.986531 34.770618 4.756606 0.000000                 
WS2-SC240        RG-1             Z2.3-MH-16       0.269281 40.000000 29.845754 9.739675 0.000000                 
WS2-SC241        RG-1             Z2.3-MH-17       0.362189 40.000000 37.043580 9.432705 0.000000                 
WS2-SC242        RG-1             Z2.3-MH-14       0.346651 40.000000 28.463252 4.315146 0.000000                 
WS2-SC243        RG-1             Z2.3-MH-13       0.470049 40.000000 38.508585 4.042684 0.000000                 
WS2-SC244        RG-1             Z2.3-MH-10       0.220008 40.000000 16.286586 17.356258 0.000000                 
WS2-SC245        RG-1             Z2.3-MH-10       0.309884 40.000000 28.913916 19.935494 0.000000                 
WS2-SC246        RG-1             Z2.3-MH-09       0.334171 40.000000 35.519316 9.223514 0.000000                 
WS2-SC247        RG-1             Z2.3-MH-09       0.590852 40.000000 59.018053 11.690481 0.000000                 
WS2-SC248        RG-1             Z2.3-MH-06       0.245630 40.000000 36.460038 5.726980 0.000000                 
WS2-SC249        RG-1             Z2.3-MH-06       0.410153 40.000000 49.358724 6.564428 0.000000                 
WS2-SC250        RG-1             Z2.3-MH-04       0.357148 40.000000 27.951051 8.357709 0.000000                 
WS2-SC26         RG-1             Z2.5-MH-01       0.754048 65.523561 72.705902 4.801286 0.000000                 
WS2-SC406        RG-1             Z2.3-MH-04       0.163515 80.000000 16.855264 5.533163 0.000000                 
WS2-SC407        RG-1             Z2.3-MH-07       0.084554 80.000000 14.937075 7.916770 0.000000                 
WS2-SC408        RG-1             Z2.9-MH-01       0.114337 80.000000 15.784302 6.866497 0.000000                 
WS2-SC409        RG-1             Z2.3-MH-11       0.122890 80.000000 14.991783 5.129298 0.000000                 
WS2-SC410        RG-1             Z2.3-MH-12       0.091955 80.000000 14.993898 3.734909 0.000000                 
WS2-SC411        RG-1             Z2.3-MH-15       0.097856 80.000000 14.986818 4.534816 0.000000                 
WS2-SC412        RG-1             Z2.3-MH-16       0.092760 80.000000 14.990671 5.224346 0.000000                 
WS2-SC413        RG-1             Z2.3-MH-18       0.111088 80.000000 14.654456 5.523497 0.000000                 
WS2-SC415        RG-1             Z2.1-MH-23       0.040905 80.000000 12.199750 6.354577 0.000000                 
WS2-SC440        RG-1             Z2.2-MH-06       0.083095 80.000000 15.592171 2.976773 0.000000                 
WS2-SC442        RG-1             Z2.1-MH-03       0.102117 80.000000 17.158083 3.365510 0.000000                 
WS2-SC443        RG-1             Z2.1-MH-06       0.105789 80.000000 15.845210 4.378649 0.000000                 
WS2-SC444        RG-1             Z2.1-MH-08       0.103341 80.000000 14.458557 2.747949 0.000000                 