[TITLE]
;;Project Title/Notes

[OPTIONS]
;;Option             Value
FLOW_UNITS           CMS
INFILTRATION         CURVE_NUMBER
FLOW_ROUTING         KINWAVE
LINK_OFFSETS         DEPTH
MIN_SLOPE            0
ALLOW_PONDING        NO
SKIP_STEADY_STATE    NO

START_DATE           05/31/2007
START_TIME           00:00:00
REPORT_START_DATE    05/31/2007
REPORT_START_TIME    00:00:00
END_DATE             10/01/2008
END_TIME             00:00:00
SWEEP_START          01/01
SWEEP_END            12/31
DRY_DAYS             0
REPORT_STEP          01:00:00
WET_STEP             01:00:00
DRY_STEP             12:00:00
ROUTING_STEP         0:05:00 

INERTIAL_DAMPING     PARTIAL
NORMAL_FLOW_LIMITED  BOTH
FORCE_MAIN_EQUATION  H-W
VARIABLE_STEP        0.75
LENGTHENING_STEP     0
MIN_SURFAREA         0
MAX_TRIALS           0
HEAD_TOLERANCE       0
SYS_FLOW_TOL         5
LAT_FLOW_TOL         5
MINIMUM_STEP         0.5
THREADS              1

[EVAPORATION]
;;Data Source    Parameters
;;-------------- ----------------
CONSTANT         0.0
DRY_ONLY         NO

[RAINGAGES]
;;Name           Format    Interval SCF      Source    
;;-------------- --------- ------ ------ ----------
SCS_24h_Type_I_25mm INTENSITY 0:15     1.0      TIMESERIES SCS_24h_Type_I_25mm
daily_full_year_1991 VOLUME    1:00     1.0      FILE       "D:\NovDec2009\2007 and 2008 1 hr precip.txt" 6158350    MM   
Ajax_07-08       VOLUME    0:05     1.0      FILE       "D:\NovDec2009\2007 and 2008 1 hr precip.txt" 84         MM   
Ajax_07-08_1hr   VOLUME    1:00     1.0      FILE       "D:\NovDec2009\2007 and 2008 1 hr precip.txt" 84         MM   

[SUBCATCHMENTS]
;;Name           Rain Gage        Outlet           Area     %Imperv  Width    %Slope   CurbLen  SnowPack        
;;-------------- ---------------- ---------------- -------- -------- -------- -------- -------- ----------------
;5
subJ222          Ajax_07-08_1hr   J222             0.258352 36       5        4        0                        
;5
subJ221          Ajax_07-08_1hr   J221             2.058826 36       5        4        0                        
;5
subJ220          Ajax_07-08_1hr   J220             1.646706 36       5        4        0                        
;17
subJ415          Ajax_07-08_1hr   J415             0.752189 14.5     5        0.96     0                        
;18
subJ428          Ajax_07-08_1hr   J428             0.939083 17.1     5        0.8      0                        
;18
subJ429          Ajax_07-08_1hr   J429             3.761354 17.1     5        0.8      0                        
;18
subJ421          Ajax_07-08_1hr   J421             0.523332 17.1     5        0.8      0                        
;4
subJ219          Ajax_07-08_1hr   J219             1.052774 36       5        3.3      0                        
;4
subJ218          Ajax_07-08_1hr   J218             0.723381 36       5        3.3      0                        
;4
subJ217          Ajax_07-08_1hr   J217             0.489986 36       5        3.3      0                        
;3
subJ206          Ajax_07-08_1hr   J206             4.7693   48.4     5        2.5      0                        
;3
subJ207          Ajax_07-08_1hr   J207             4.894383 48.4     5        2.5      0                        
;3
subJ212          Ajax_07-08_1hr   J212             1.09227  48.4     5        2.5      0                        
;2
subJ9            Ajax_07-08_1hr   J9               4.024613 72       5        2.3      0                        
;2
subJ12           Ajax_07-08_1hr   J12              2.260637 72       5        2.3      0                        
;2
sub8306          Ajax_07-08_1hr   8306             4.570665 72       5        2.3      0                        
;2
subJ13           Ajax_07-08_1hr   J13              1.750443 72       5        2.3      0                        
;2
sub8307          Ajax_07-08_1hr   8307             5.826478 72       5        2.3      0                        
;2
subJ8            Ajax_07-08_1hr   J8               0.621088 72       5        2.3      0                        
;1
sub7810          Ajax_07-08_1hr   7810             1.483345 78       5        0.8      0                        
;8
subJ35           Ajax_07-08_1hr   J35              1.233163 22       5        1.3      0                        
;8
sub6193          Ajax_07-08_1hr   6193             0.165433 22       5        1.3      0                        
;8
sub6194          Ajax_07-08_1hr   6194             0.101332 22       5        1.3      0                        
;8
sub6918          Ajax_07-08_1hr   6918             1.818127 22       5        1.3      0                        
;8
subJ34           Ajax_07-08_1hr   J34              0.186736 22       5        1.3      0                        
;8
sub6195          Ajax_07-08_1hr   6195             0.246292 22       5        1.3      0                        
;8
sub6196          Ajax_07-08_1hr   6196             0.174772 22       5        1.3      0                        
;8
sub6197          Ajax_07-08_1hr   6197             0.206487 22       5        1.3      0                        
;8
subJ33           Ajax_07-08_1hr   J33              0.221135 22       5        1.3      0                        
;8
sub6198          Ajax_07-08_1hr   6198             0.278591 22       5        1.3      0                        
;8
subJ57           Ajax_07-08_1hr   J57              0.155867 22       5        1.3      0                        
;8
sub6917          Ajax_07-08_1hr   6917             1.97356  22       5        1.3      0                        
;8
sub6916          Ajax_07-08_1hr   6916             0.318267 22       5        1.3      0                        
;8
subJ31           Ajax_07-08_1hr   J31              0.558908 22       5        1.3      0                        
;8
sub6161          Ajax_07-08_1hr   6161             0.245958 22       5        1.3      0                        
;8
subJ42           Ajax_07-08_1hr   J42              0.205863 22       5        1.3      0                        
;8
subJ56           Ajax_07-08_1hr   J56              0.119035 22       5        1.3      0                        
;8
sub6162          Ajax_07-08_1hr   6162             0.145344 22       5        1.3      0                        
;8
sub8454          Ajax_07-08_1hr   8454             0.3404   22       5        1.3      0                        
;8
sub8455          Ajax_07-08_1hr   8455             1.935962 22       5        1.3      0                        
;8
sub6153          Ajax_07-08_1hr   6153             0.179931 22       5        1.3      0                        
;8
subJ53           Ajax_07-08_1hr   J53              0.272229 22       5        1.3      0                        
;8
sub6159          Ajax_07-08_1hr   6159             0.267817 22       5        1.3      0                        
;8
sub6154          Ajax_07-08_1hr   6154             0.085497 22       5        1.3      0                        
;8
sub6160          Ajax_07-08_1hr   6160             0.127068 22       5        1.3      0                        
;8
subJ46           Ajax_07-08_1hr   J46              0.177224 22       5        1.3      0                        
;8
subJ52           Ajax_07-08_1hr   J52              0.284967 22       5        1.3      0                        
;8
sub6175          Ajax_07-08_1hr   6175             0.217313 22       5        1.3      0                        
;8
subJ41           Ajax_07-08_1hr   J41              0.094058 22       5        1.3      0                        
;8
sub6176          Ajax_07-08_1hr   6176             0.197885 22       5        1.3      0                        
;8
subJ55           Ajax_07-08_1hr   J55              0.091821 22       5        1.3      0                        
;8
sub6156          Ajax_07-08_1hr   6156             0.105375 22       5        1.3      0                        
;8
sub8453          Ajax_07-08_1hr   8453             1.536843 22       5        1.3      0                        
;8
sub6155          Ajax_07-08_1hr   6155             0.279887 22       5        1.3      0                        
;8
subJ51           Ajax_07-08_1hr   J51              0.055626 22       5        1.3      0                        
;8
sub8452          Ajax_07-08_1hr   8452             0.228233 22       5        1.3      0                        
;8
sub6152          Ajax_07-08_1hr   6152             0.208189 22       5        1.3      0                        
;8
subJ54           Ajax_07-08_1hr   J54              0.173985 22       5        1.3      0                        
;8
sub6151          Ajax_07-08_1hr   6151             0.2071   22       5        1.3      0                        
;8
subJ45           Ajax_07-08_1hr   J45              0.087277 22       5        1.3      0                        
;8
sub6163          Ajax_07-08_1hr   6163             0.166961 22       5        1.3      0                        
;8
sub6164          Ajax_07-08_1hr   6164             0.16634  22       5        1.3      0                        
;8
sub6174          Ajax_07-08_1hr   6174             0.185957 22       5        1.3      0                        
;8
subJ40           Ajax_07-08_1hr   J40              0.088239 22       5        1.3      0                        
;8
sub6178          Ajax_07-08_1hr   6178             0.135013 22       5        1.3      0                        
;8
sub6173          Ajax_07-08_1hr   6173             0.118773 22       5        1.3      0                        
;8
sub6166          Ajax_07-08_1hr   6166             0.1937   22       5        1.3      0                        
;8
subJ44           Ajax_07-08_1hr   J44              0.073479 22       5        1.3      0                        
;8
sub6165          Ajax_07-08_1hr   6165             0.115298 22       5        1.3      0                        
;8
sub6180          Ajax_07-08_1hr   6180             0.249701 22       5        1.3      0                        
;8
subJ50           Ajax_07-08_1hr   J50              0.189641 22       5        1.3      0                        
;8
sub6158          Ajax_07-08_1hr   6158             0.335326 22       5        1.3      0                        
;8
sub6150          Ajax_07-08_1hr   6150             0.137657 22       5        1.3      0                        
;8
sub6148          Ajax_07-08_1hr   6148             0.377579 22       5        1.3      0                        
;8
sub6171          Ajax_07-08_1hr   6171             0.106974 22       5        1.3      0                        
;8
sub6248          Ajax_07-08_1hr   6248             0.208403 22       5        1.3      0                        
;8
subJ39           Ajax_07-08_1hr   J39              0.077227 22       5        1.3      0                        
;8
sub6247          Ajax_07-08_1hr   6247             0.396274 22       5        1.3      0                        
;8
sub6149          Ajax_07-08_1hr   6149             0.297856 22       5        1.3      0                        
;8
sub6157          Ajax_07-08_1hr   6157             0.088081 22       5        1.3      0                        
;8
sub6249          Ajax_07-08_1hr   6249             0.112189 22       5        1.3      0                        
;8
sub6172          Ajax_07-08_1hr   6172             0.19594  22       5        1.3      0                        
;8
sub6251          Ajax_07-08_1hr   6251             0.259597 22       5        1.3      0                        
;8
sub6250          Ajax_07-08_1hr   6250             0.311493 22       5        1.3      0                        
;8
sub6167          Ajax_07-08_1hr   6167             0.118542 22       5        1.3      0                        
;8
subJ43           Ajax_07-08_1hr   J43              0.073893 22       5        1.3      0                        
;8
sub6168          Ajax_07-08_1hr   6168             0.210088 22       5        1.3      0                        
;8
sub6252          Ajax_07-08_1hr   6252             0.28333  22       5        1.3      0                        
;8
subJ29           Ajax_07-08_1hr   J29              0.100529 22       5        1.3      0                        
;8
sub6170          Ajax_07-08_1hr   6170             0.307448 22       5        1.3      0                        
;8
sub6179          Ajax_07-08_1hr   6179             0.415568 22       5        1.3      0                        
;8
sub6253          Ajax_07-08_1hr   6253             0.116305 22       5        1.3      0                        
;8
subJ38           Ajax_07-08_1hr   J38              0.04045  22       5        1.3      0                        
;8
sub6169          Ajax_07-08_1hr   6169             0.232818 22       5        1.3      0                        
;8
sub6131          Ajax_07-08_1hr   6131             0.313996 22       5        1.3      0                        
;8
subJ36           Ajax_07-08_1hr   J36              0.285601 22       5        1.3      0                        
;8
sub6181          Ajax_07-08_1hr   6181             0.405135 22       5        1.3      0                        
;8
sub6130          Ajax_07-08_1hr   6130             0.148323 22       5        1.3      0                        
;8
sub6132          Ajax_07-08_1hr   6132             0.177487 22       5        1.3      0                        
;8
subJ24           Ajax_07-08_1hr   J24              0.064132 22       5        1.3      0                        
;8
subJ32           Ajax_07-08_1hr   J32              0.077793 22       5        1.3      0                        
;8
sub6129          Ajax_07-08_1hr   6129             0.066841 22       5        1.3      0                        
;8
sub6133          Ajax_07-08_1hr   6133             0.133565 22       5        1.3      0                        
;8
subJ49           Ajax_07-08_1hr   J49              0.232109 22       5        1.3      0                        
;8
sub6147          Ajax_07-08_1hr   6147             0.105113 22       5        1.3      0                        
;8
sub8799          Ajax_07-08_1hr   8799             0.05033  22       5        1.3      0                        
;8
sub8800          Ajax_07-08_1hr   8800             0.079462 22       5        1.3      0                        
;8
sub6145          Ajax_07-08_1hr   6145             0.206109 22       5        1.3      0                        
;8
sub6233          Ajax_07-08_1hr   6233             0.100788 22       5        1.3      0                        
;8
subJ4            Ajax_07-08_1hr   J4               0.256229 22       5        1.3      0                        
;8
subJ28           Ajax_07-08_1hr   J28              0.088276 22       5        1.3      0                        
;8
sub6254          Ajax_07-08_1hr   6254             0.317268 22       5        1.3      0                        
;8
sub6255          Ajax_07-08_1hr   6255             0.204389 22       5        1.3      0                        
;8
sub6234          Ajax_07-08_1hr   6234             0.924526 22       5        1.3      0                        
;8
subJ37           Ajax_07-08_1hr   J37              0.3534   22       5        1.3      0                        
;8
sub6134          Ajax_07-08_1hr   6134             0.167284 22       5        1.3      0                        
;8
sub6146          Ajax_07-08_1hr   6146             0.132429 22       5        1.3      0                        
;8
sub6135          Ajax_07-08_1hr   6135             0.248276 22       5        1.3      0                        
;8
subJ5            Ajax_07-08_1hr   J5               0.2906   22       5        1.3      0                        
;8
subJ48           Ajax_07-08_1hr   J48              0.073831 22       5        1.3      0                        
;8
sub6143          Ajax_07-08_1hr   6143             0.280237 22       5        1.3      0                        
;8
subJ23           Ajax_07-08_1hr   J23              0.116219 22       5        1.3      0                        
;8
sub6226          Ajax_07-08_1hr   6226             0.071895 22       5        1.3      0                        
;8
sub6136          Ajax_07-08_1hr   6136             0.30949  22       5        1.3      0                        
;8
sub8797          Ajax_07-08_1hr   8797             0.046158 22       5        1.3      0                        
;8
sub8798          Ajax_07-08_1hr   8798             0.190547 22       5        1.3      0                        
;8
sub8808          Ajax_07-08_1hr   8808             0.138016 22       5        1.3      0                        
;8
sub6238          Ajax_07-08_1hr   6238             0.060479 22       5        1.3      0                        
;8
sub6144          Ajax_07-08_1hr   6144             0.307223 22       5        1.3      0                        
;8
sub6236          Ajax_07-08_1hr   6236             0.466911 22       5        1.3      0                        
;8
sub6237          Ajax_07-08_1hr   6237             0.067206 22       5        1.3      0                        
;8
subJ6            Ajax_07-08_1hr   J6               0.022666 22       5        1.3      0                        
;8
sub6225          Ajax_07-08_1hr   6225             0.071019 22       5        1.3      0                        
;8
sub6224          Ajax_07-08_1hr   6224             0.219008 22       5        1.3      0                        
;8
subJ26           Ajax_07-08_1hr   J26              0.11598  22       5        1.3      0                        
;8
sub6257          Ajax_07-08_1hr   6257             0.171356 22       5        1.3      0                        
;8
sub6256          Ajax_07-08_1hr   6256             0.147215 22       5        1.3      0                        
;8
sub6137          Ajax_07-08_1hr   6137             0.262379 22       5        1.3      0                        
;8
subJ30           Ajax_07-08_1hr   J30              0.059741 22       5        1.3      0                        
;8
sub6142          Ajax_07-08_1hr   6142             0.049747 22       5        1.3      0                        
;8
subJ47           Ajax_07-08_1hr   J47              0.074842 22       5        1.3      0                        
;8
sub6239          Ajax_07-08_1hr   6239             0.073353 22       5        1.3      0                        
;8
sub6138          Ajax_07-08_1hr   6138             0.48788  22       5        1.3      0                        
;8
subJ22           Ajax_07-08_1hr   J22              0.127339 22       5        1.3      0                        
;8
sub6141          Ajax_07-08_1hr   6141             0.154761 22       5        1.3      0                        
;8
sub6240          Ajax_07-08_1hr   6240             0.121705 22       5        1.3      0                        
;8
subJ16           Ajax_07-08_1hr   J16              0.027695 22       5        1.3      0                        
;8
sub8796          Ajax_07-08_1hr   8796             0.06109  22       5        1.3      0                        
;8
sub8795          Ajax_07-08_1hr   8795             0.207647 22       5        1.3      0                        
;8
sub6215          Ajax_07-08_1hr   6215             0.14503  22       5        1.3      0                        
;8
subJ25           Ajax_07-08_1hr   J25              0.060284 22       5        1.3      0                        
;8
subJ352          Ajax_07-08_1hr   J352             0.83319  22       5        1.3      0                        
;8
sub6216          Ajax_07-08_1hr   6216             0.246868 22       5        1.3      0                        
;8
sub6140          Ajax_07-08_1hr   6140             0.12955  22       5        1.3      0                        
;8
subJ20           Ajax_07-08_1hr   J20              0.007936 22       5        1.3      0                        
;8
sub6258          Ajax_07-08_1hr   6258             0.187443 22       5        1.3      0                        
;8
subJ27           Ajax_07-08_1hr   J27              0.410513 22       5        1.3      0                        
;8
sub6259          Ajax_07-08_1hr   6259             0.11889  22       5        1.3      0                        
;8
sub6241          Ajax_07-08_1hr   6241             0.195435 22       5        1.3      0                        
;8
sub6242          Ajax_07-08_1hr   6242             0.075521 22       5        1.3      0                        
;8
subJ17           Ajax_07-08_1hr   J17              0.018738 22       5        1.3      0                        
;8
subJ21           Ajax_07-08_1hr   J21              0.302034 22       5        1.3      0                        
;8
sub6243          Ajax_07-08_1hr   6243             0.190895 22       5        1.3      0                        
;8
sub6209          Ajax_07-08_1hr   6209             0.195428 22       5        1.3      0                        
;8
subJ3            Ajax_07-08_1hr   J3               0.009472 22       5        1.3      0                        
;8
sub6217          Ajax_07-08_1hr   6217             0.282176 22       5        1.3      0                        
;8
subJ15           Ajax_07-08_1hr   J15              0.23497  22       5        1.3      0                        
;8
sub6210          Ajax_07-08_1hr   6210             0.115324 22       5        1.3      0                        
;8
sub6244          Ajax_07-08_1hr   6244             0.172475 22       5        1.3      0                        
;8
sub6218          Ajax_07-08_1hr   6218             0.330751 22       5        1.3      0                        
;8
subJ18           Ajax_07-08_1hr   J18              0.590169 22       5        1.3      0                        
;8
subJ14           Ajax_07-08_1hr   J14              0.188769 22       5        1.3      0                        
;8
sub6222          Ajax_07-08_1hr   6222             1.503307 22       5        1.3      0                        
;8
sub6223          Ajax_07-08_1hr   6223             0.343429 22       5        1.3      0                        
;8
sub6246          Ajax_07-08_1hr   6246             0.287608 22       5        1.3      0                        
;8
subJ2            Ajax_07-08_1hr   J2               0.23689  22       5        1.3      0                        
;8
sub6245          Ajax_07-08_1hr   6245             0.333813 22       5        1.3      0                        
;8
sub6211          Ajax_07-08_1hr   6211             0.382056 22       5        1.3      0                        
;8
sub6212          Ajax_07-08_1hr   6212             0.385667 22       5        1.3      0                        
;8
subJ19           Ajax_07-08_1hr   J19              0.017853 22       5        1.3      0                        
;8
sub8801          Ajax_07-08_1hr   8801             0.31162  22       5        1.3      0                        
;8
sub8802          Ajax_07-08_1hr   8802             0.110478 22       5        1.3      0                        
;8
subJ7            Ajax_07-08_1hr   J7               0.423497 22       5        1.3      0                        
;8
sub6220          Ajax_07-08_1hr   6220             0.266619 22       5        1.3      0                        
;8
sub6219          Ajax_07-08_1hr   6219             0.422724 22       5        1.3      0                        
;8
subJ1            Ajax_07-08_1hr   J1               0.588246 22       5        1.3      0                        
;8
sub6213          Ajax_07-08_1hr   6213             0.326007 22       5        1.3      0                        
;8
sub6214          Ajax_07-08_1hr   6214             0.229178 22       5        1.3      0                        
;9
subJ163          Ajax_07-08_1hr   J163             2.267709 25       5        0.9      0                        
;9
subJ152          Ajax_07-08_1hr   J152             1.324732 25       5        0.9      0                        
;9
subJ164          Ajax_07-08_1hr   J164             0.359048 25       5        0.9      0                        
;9
subJ154          Ajax_07-08_1hr   J154             0.682263 25       5        0.9      0                        
;9
subJ162          Ajax_07-08_1hr   J162             0.402468 25       5        0.9      0                        
;9
subJ153          Ajax_07-08_1hr   J153             0.949605 25       5        0.9      0                        
;9
subJ165          Ajax_07-08_1hr   J165             0.460595 25       5        0.9      0                        
;9
subJ151          Ajax_07-08_1hr   J151             1.041845 25       5        0.9      0                        
;9
subJ145          Ajax_07-08_1hr   J145             0.296373 25       5        0.9      0                        
;9
subJ150          Ajax_07-08_1hr   J150             0.534788 25       5        0.9      0                        
;9
subJ166          Ajax_07-08_1hr   J166             0.84927  25       5        0.9      0                        
;9
subJ156          Ajax_07-08_1hr   J156             0.574386 25       5        0.9      0                        
;9
subJ160          Ajax_07-08_1hr   J160             0.58942  25       5        0.9      0                        
;9
sub8783          Ajax_07-08_1hr   8783             0.126192 25       5        0.9      0                        
;9
sub8782          Ajax_07-08_1hr   8782             0.044486 25       5        0.9      0                        
;9
sub8781          Ajax_07-08_1hr   8781             0.40474  25       5        0.9      0                        
;9
sub8785          Ajax_07-08_1hr   8785             0.302914 25       5        0.9      0                        
;9
sub8784          Ajax_07-08_1hr   8784             0.239974 25       5        0.9      0                        
;9
sub8780          Ajax_07-08_1hr   8780             1.049679 25       5        0.9      0                        
;9
subJ155          Ajax_07-08_1hr   J155             0.558207 25       5        0.9      0                        
;9
subJ159          Ajax_07-08_1hr   J159             0.311614 25       5        0.9      0                        
;9
sub8794          Ajax_07-08_1hr   8794             0.662974 25       5        0.9      0                        
;9
subJ143          Ajax_07-08_1hr   J143             0.150718 25       5        0.9      0                        
;9
sub8779          Ajax_07-08_1hr   8779             0.168179 25       5        0.9      0                        
;9
sub8778          Ajax_07-08_1hr   8778             0.139395 25       5        0.9      0                        
;9
subJ157          Ajax_07-08_1hr   J157             0.409496 25       5        0.9      0                        
;9
sub6920          Ajax_07-08_1hr   6920             1.091378 25       5        0.9      0                        
;9
subJ149          Ajax_07-08_1hr   J149             0.342581 25       5        0.9      0                        
;9
sub6919          Ajax_07-08_1hr   6919             0.22863  25       5        0.9      0                        
;9
sub8776          Ajax_07-08_1hr   8776             0.404163 25       5        0.9      0                        
;9
sub8793          Ajax_07-08_1hr   8793             0.444403 25       5        0.9      0                        
;9
sub8777          Ajax_07-08_1hr   8777             0.348136 25       5        0.9      0                        
;9
sub8792          Ajax_07-08_1hr   8792             0.351948 25       5        0.9      0                        
;9
subJ146          Ajax_07-08_1hr   J146             0.500878 25       5        0.9      0                        
;9
sub6199          Ajax_07-08_1hr   6199             0.73967  25       5        0.9      0                        
;9
sub6201          Ajax_07-08_1hr   6201             0.1693   25       5        0.9      0                        
;9
sub7486          Ajax_07-08_1hr   7486             0.582257 25       5        0.9      0                        
;9
sub6200          Ajax_07-08_1hr   6200             0.096008 25       5        0.9      0                        
;9
subJ158          Ajax_07-08_1hr   J158             0.228645 25       5        0.9      0                        
;9
sub7485          Ajax_07-08_1hr   7485             0.144764 25       5        0.9      0                        
;9
subJ147          Ajax_07-08_1hr   J147             0.153341 25       5        0.9      0                        
;9
sub6921          Ajax_07-08_1hr   6921             0.184658 25       5        0.9      0                        
;9
sub7487          Ajax_07-08_1hr   7487             0.465755 25       5        0.9      0                        
;9
sub8775          Ajax_07-08_1hr   8775             0.339528 25       5        0.9      0                        
;9
sub8791          Ajax_07-08_1hr   8791             0.330856 25       5        0.9      0                        
;9
sub8790          Ajax_07-08_1hr   8790             0.22601  25       5        0.9      0                        
;9
sub8774          Ajax_07-08_1hr   8774             0.317318 25       5        0.9      0                        
;9
sub7484          Ajax_07-08_1hr   7484             0.306978 25       5        0.9      0                        
;9
sub7482          Ajax_07-08_1hr   7482             0.212382 25       5        0.9      0                        
;9
subJ139          Ajax_07-08_1hr   J139             0.293753 25       5        0.9      0                        
;9
sub6202          Ajax_07-08_1hr   6202             0.629143 25       5        0.9      0                        
;9
sub7452          Ajax_07-08_1hr   7452             0.48943  25       5        0.9      0                        
;9
sub7483          Ajax_07-08_1hr   7483             0.150706 25       5        0.9      0                        
;9
subJ144          Ajax_07-08_1hr   J144             0.261793 25       5        0.9      0                        
;9