[TITLE]
;;Project Title/Notes

[OPTIONS]
;;Option             Value
FLOW_UNITS           MGD
INFILTRATION         HORTON
FLOW_ROUTING         DYNWAVE
LINK_OFFSETS         DEPTH
MIN_SLOPE            0
ALLOW_PONDING        YES
SKIP_STEADY_STATE    NO

IGNORE_ROUTING       YES
START_DATE           05/10/1999
START_TIME           00:00:00
REPORT_START_DATE    05/10/1999
REPORT_START_TIME    00:00:00
END_DATE             05/12/1999
END_TIME             00:00:00
SWEEP_START          1/1
SWEEP_END            12/31
DRY_DAYS             0
REPORT_STEP          0:01:00
WET_STEP             0:01:00
DRY_STEP             0:01:00
ROUTING_STEP         0:00:30 

INERTIAL_DAMPING     NONE
NORMAL_FLOW_LIMITED  BOTH
FORCE_MAIN_EQUATION  H-W
VARIABLE_STEP        0.75
LENGTHENING_STEP     0
MIN_SURFAREA         0
MAX_TRIALS           0
HEAD_TOLERANCE       0
SYS_FLOW_TOL         5
LAT_FLOW_TOL         5
MINIMUM_STEP         0.5
THREADS              1

[EVAPORATION]
;;Data Source    Parameters
;;-------------- ----------------
CONSTANT         0
DRY_ONLY         NO

[RAINGAGES]
;;Name           Format    Interval SCF      Source    
;;-------------- --------- ------ ------ ----------
1                INTENSITY 1:00     1        TIMESERIES RainSeries1     

[SUBCATCHMENTS]
;;Name           Rain Gage        Outlet           Area     %Imperv  Width    %Slope   CurbLen  SnowPack        
;;-------------- ---------------- ---------------- -------- -------- -------- -------- -------- ----------------
; Name Raingage Outlet Area %Imperv Width Slope Clength
BCintj           1                BA00019          30.210047 23       5760     4.6      0                        
BCinth           1                BA00019          44.240068 5.1      62       3        0                        
BCinti           1                BA00019          77.080119 4        68.6     4.8      0                        
BCinte           1                BA00019          105.610163 3.4      18.5     4.2      0                        
BCIntd           1                BA00019          27.030042 3.2      12.2     2        0                        
BCIntc           1                BA00019          14.220022 3.1      28.5     2.9      0                        
BCinta           1                BA00019          39.850062 4        35.5     2.6      0                        
BC30n            1                BA00019          1.420002 20.5     780      3        0                        
BC30a            1                BA00019          1.080002 6        6        1.5      0                        
BC30bcr          1                BA00019          93.200144 3        30       2        0                        
BC30d            1                BA00019          38.83006 10       1200     7        0                        
BA00255_102_102  1                BA00019          0        0        0.1      0        0                        
BC44g            1                BA00019          8.540013 39       1120     3        0                        
BC44h            1                BA00019          18.660029 48       6390     2        0                        
BA00315_19_19    1                BA00019          0        0        0.1      0        0                        
BC121a           1                BA00019          13.00002 9.5      1780     1        0                        
BC121b           1                BA00019          16.130025 9        1300     0.8      0                        
BC21a            1                BA00019          6.76001  40.5     1080     1        0                        
BC2a             1                BA00019          5.770009 40       1060     1        0                        
BC2d             1                BA00019          4.680007 35       1020     1        0                        
BC2e             1                BA00019          14.490022 37       700      2        0                        
BC2f             1                BA00019          30.760047 31       1380     2        0                        
BC2c-SAN         1                BA00019          7.720012 4.1      10       2        0                        
BC10f            1                BA00019          62.640097 1.8      1        2        0                        
BC10b            1                BA00019          27.740043 21       203      3        0                        
104Is            1                BA00019          181.52028 28.8     1        3        0                        
BC10d            1                BA00019          47.720074 28.8     253.5    2        0                        
BC13a            1                BA00019          13.350021 43.2     1902     2        0                        
BC10c            1                BA00019          34.180053 21.6     234      2        0                        
BBAA165c1        1                BA00019          0        0        0.1      0        0                        
BC10a            1                BA00019          1.050002 58       370      3        0                        
BC10aX           1                BA00019          1.050002 5.8      3.7      3        0                        
BC16a            1                BA00019          12.98002 36       910      2        0                        
BC15ABa          1                BA00019          42.970066 39       3330     4        0                        
BBAB040c1        1                BA00019          0        0        0.1      0        0                        
BBB0005c1        1                BA00019          0        0        0.1      0        0                        
BBB040A_188_188  1                BA00019          0        0        0.1      0        0                        
Jenningsfc       1                BA00019          13.390021 41       1890     4.3      0                        
Jenningsd        1                BA00019          51.91008 19       4930     7.9      0                        
Jenningse        1                BA00019          9.250014 39       1600     1.4      0                        
Jenningsfb       1                BA00019          8.800014 41       1890     4.3      0                        
Jenningsf        1                BA00019          30.000046 41       1890     4.3      0                        
BBB085Bc1        1                BA00019          0        0        0.1      0        0                        
Jenningsc        1                BA00019          35.740055 20.5     3250     1.4      0                        
Jenningsb        1                BA00019          16.240025 18       1780     2        0                        
BBB185Bc1        1                BA00019          0        0        0.1      0        0                        
BBBA015c1        1                BA00019          0        0        0.1      0        0                        
BC3a             1                BA00019          29.130045 10       1760     1.1      0                        
BC063a           1                BA00019          556.399859 53       9276     1.4      0                        
BC2c             1                BA00019          7.720012 20.5     1000     2        0                        
BC100a           1                BA00019          6.72001  30.4     1540     3        0                        
BC114a           1                BA00019          4.250007 20       400      2        0                        
BC114aX          1                BA00019          4.250007 5        40       2        0                        
BC115a           1                BA00019          6.41001  20       400      2        0                        
BC115aX          1                BA00019          6.41001  5        40       2        0                        
BC116_36_36      1                BA00019          0        0        0.1      0        0                        
BC116a           1                BA00019          6.78001  20       400      2        0                        
BC116aX          1                BA00019          6.78001  5        40       2        0                        
BC44a            1                BA00019          31.650049 26       772      2        0                        
BC44ax           1                BA00019          31.650049 46       15       2        0                        
BC14a            1                BA00019          8.190013 16.8     194      3        0                        
BC16Ab           1                BA00019          51.60008 4.1      49.8     2.7      0                        
BC16AbaX         1                BA00019          6.65001  4.1      49.8     2        0                        
BC16Abb          1                BA00019          12.040019 4.1      49.8     2        0                        
BC17a            1                BA00019          7.990012 12       3380     2        0                        
BC18a            1                BA00019          10.220016 28       1900     2        0                        
BC7a             1                BA00019          22.000034 32.8     680      2        0                        
BC25c            1                BA00019          7.630012 36       8.2      2        0                        
STM22            1                BA00019          50.040578 0.250997 1610     3.6      0                        
BC16Ab-STM       1                BA00019          51.60008 41       4980     2.7      0                        
BC19a            1                BA00019          7.190011 40.8     3160     2        0                        
Jenningsa        1                BA00019          18.500029 19       2535     14.2     0                        
Jenningsx        1                BA00019          18.500029 1        50       14.2     0                        
Jenningsh        1                BA00019          3.340005 29       690      13.5     0                        
BC20Aa           1                BA00019          2.790004 17.5     1060     2        0                        
BCintg-STM       1                BA00019          6.38001  4.9      19.4     2.7      0                        
BCintm-STM       1                BA00019          12.600019 28       4040     1        0                        
BCintk           1                BA00019          16.490025 24.5     2200     1        0                        
BC125a           1                BA00019          41.040063 28.8     6640     2        0                        
BCintl           1                BA00019          38.170059 36.8     5100     3        0                        
BC7b             1                BA00019          9.920015 28.8     2280     2        0                        
BCIntb-STM       1                BA00019          14.170022 50.4     2230     3        0                        
BC25d-STM        1                BA00019          8.240013 41       1845     2        0                        
BC25b-STM        1                BA00019          17.250027 43       1920     2        0                        
BC29a            1                BA00019          5.050008 10.5     940      2        0                        
BCInta1          1                BA00019          18.000028 56       1775     2        0                        
BC25c-STM        1                BA00019          7.630012 36       1640     2.9      0                        
BC34a            1                BA00019          21.120033 13.5     2475     4        0                        
BC36a            1                BA00019          9.530015 15.5     3600     1        0                        
BC38a            1                BA00019          11.600018 35       3700     1        0                        
BC39_165_165     1                BA00019          0        0        0.1      0        0                        
STM16            1                BA00019          3.560005 0.8      9.9      8.3      0                        
BC39b            1                BA00019          19.18003 32       845      3        0                        
BC39a            1                BA00019          2.320004 23       335      8        0                        
BC41aaX          1                BA00019          1.510002 55       5        2        0                        
BC41aa           1                BA00019          1.510002 38       590      2.3      0                        
BC164st          1                BA00019          53.000082 50       6000     2        0                        
BC41a-STM        1                BA00019          32.040049 42       3670     2        0                        
BC30a-STM        1                BA00019          1.080002 60       600      1.5      0                        
BC41h-STM        1                BA00019          58.40009 37       4640     2.8      0                        
STM23+18         1                BA00019          39.12006 45       3800     0.1      0                        
BC42a            1                BA00019          17.820028 30       1180     2        0                        
BC46a            1                BA00019          13.660021 28       225      3        0                        
BC46ax           1                BA00019          13.660021 48       20       3        0                        
BC47a            1                BA00019          10.980017 35       480      1        0                        
BC49a            1                BA00019          7.000011 33       200      3        0                        
BC49ax           1                BA00019          7.000011 53       5        3        0                        
BC50a            1                BA00019          6.41001  34       300      1        0                        
BC50aX           1                BA00019          6.41001  9        30       1        0                        
BC51a            1                BA00019          12.130019 37       600      1        0                        
BC52_21_21       1                BA00019          0        0        0.1      0        0                        
BC51aX           1                BA00019          12.130019 9        60       1        0                        
BC52a            1                BA00019          11.360018 30       550      1        0                        
BC53a            1                BA00019          1.420002 41       250      1        0                        
BC53aX           1                BA00019          1.420002 10       25       1        0                        
BC54a            1                BA00019          1.440002 40       1200     2        0                        
BC54aX           1                BA00019          1.440002 10       120      2        0                        
BC56Ec1          1                BA00019          0        0        0.1      0        0                        
BC56Wc1          1                BA00019          0        0        0.1      0        0                        
BC59a            1                BA00019          9.330014 32       400      1        0                        
BC61a            1                BA00019          10.620016 38       300      1        0                        
BC62a            1                BA00019          11.670018 30       2045     1        0                        
BC64a            1                BA00019          14.330022 23       2250     0.8      0                        
BC56r            1                BA00019          9.000014 28       550      1        0                        
BC56rX           1                BA00019          9.000014 25       400      1        0                        
BC66a            1                BA00019          12.97002 38       200      1        0                        
BC69a            1                BA00019          4.710007 10       400      4        0                        
BC73Ac1          1                BA00019          0        0        0.1      0        0                        
BC82c1           1                BA00019          0        0        0.1      0        0                        
BC84a            1                BA00019          19.42003 38       1100     1        0                        
BC84aX           1                BA00019          19.42003 9        110      1        0                        
BC58b            1                BA00019          53.990083 33       2275     2        0                        
BC86Dc1          1                BA00019          0        0        0.1      0        0                        
BC150x           1                BA00019          351.399542 30       5        0.5      0                        
BC58c            1                BA00019          60.780094 25       3685     1        0                        
BC89_130_130     1                BA00019          0        0        0.1      0        0                        
BC90a            1                BA00019          1.810003 49.2     378      1        0                        
BC89a            1                BA00019          0.630001 48       210      1        0                        
STM19            1                BA00019          3.000005 21.6     264      1        0                        
BC09b            1                BA00019          56.840088 34.8     1614     2        0                        
BC09a            1                BA00019          1.570002 68.4     390      1        0                        
BC90_129_129     1                BA00019          0        0        0.1      0        0                        
STM20            1                BA00019          46.120071 32.4     456      1        0                        
BC16Aba          1                BA00019          6.65001  41       4980     2        0                        
BC41o-STM        1                BA00019          25.340039 27       760      1        0                        
BC91a            1                BA00019          2.140003 50.4     570      1        0                        
BC92a            1                BA00019          2.720004 44       1360     2        0                        
BC96a            1                BA00019          1.550002 45.6     680      1        0                        
BC93a            1                BA00019          6.45001  28       1860     1        0                        
BCInta2          1                BA00019          22.000034 32       1775     2        0                        
BC94a            1                BA00019          8.490013 38.4     1900     3        0                        
BC7i             1                BA00019          15.780024 29.6     2465     3        0                        
BC7c             1                BA00019          27.650043 32       3730     2        0                        
BC94E_215_215    1                BA00019          0        0        0.1      0        0                        
BC95a            1                BA00019          10.270016 36       2000     3        0                        
BC7g             1                BA00019          16.440025 26.4     3000     4        0                        
BC7d             1                BA00019          7.210011 32.8     2520     1        0                        
BC7e             1                BA00019          20.360031 32.8     1260     3        0                        
BC7e-s           1                BA00019          10.180016 41       126      3        0                        
BC7f             1                BA00019          8.630013 22.4     2100     2        0                        
BC98a            1                BA00019          1.430002 48       700      1        0                        
BC98_234_234     1                BA00019          0        0        0.1      0        0                        
BC20a            1                BA00019          8.570013 24.8     2250     3        0                        
BC99a            1                BA00019          51.250079 10       1730     2.9      0                        
BC2b             1                BA00019          13.970022 55.5     3090     1        0                        
BC4a             1                BA00019          36.000416 9.250907 2830     2.4      0                        
BC4c             1                BA00019          42.390489 8.750912 580      2.3      0                        
BCA0065c1        1                BA00019          0        0        0.1      0        0                        
STM10x           1                BA00019          38.81006 15       6        1        0                        
STM10            1                BA00019          38.81006 30       300      1        0                        
BCST71Hc1        1                BA00019          0        0        0.1      0        0                        
BC1a             1                BA00019          28.950045 10       4220     2.3      0                        
BD00090_224_224  1                BA00019          0        0        0.1      0        0                        
BC1b             1                BA00019          29.330339 9.750902 3710     2.9      0                        
BD00130c1        1                BA00019          0        0        0.1      0        0                        
BCIntb           1                BA00019          14.170022 3.6      22.3     3.3      0                        
BC25a            1                BA00019          11.690018 51.8     2000     3        0                        
BC25b            1                BA00019          17.250027 4.3      19.2     2        0                        
BC25d            1                BA00019          8.240013 4.1      18.4     2        0                        
BC25c-SAN        1                BA00019          7.630012 3.6      16.4     2.9      0                        
BC7aa            1                BA00019          9.740015 41       3.4      2        0                        
BCintk-SAN       1                BA00019          16.490025 4.9      22       1.7      0                        
BF00060_233_233  1                BA00019          0        0        0.1      0        0                        
BF00090_238_238  1                BA00019          0        0        0.1      0        0                        
BCintg           1                BA00019          6.38001  39.2     1940     2        0                        
BCintm           1                BA00019          12.600019 5.6      40.4     1.8      0                        
BC18Aa           1                BA00019          4.700007 42       1485     2        0                        
BC18-s           1                BA00019          4.700007 42       5        2        0                        
BC28a            1                BA00019          12.210019 21.5     1340     1        0                        
BG00010_195_195  1                BA00019          0        0        0.1      0        0                        
BC31a            1                BA00019          1.550002 20       350      1        0                        
BC33a            1                BA00019          10.850017 19       2300     2        0                        
BC32a            1                BA00019          32.20005 19.5     3900     4        0                        
BC35a            1                BA00019          44.800069 16.5     2925     1        0                        
BC35b            1                BA00019          32.24005 17.5     1590     2        0                        
BC30m            1                BA00019          6.000009 17.5     1400     2        0                        
BC30o            1                BA00019          2.760004 4        1850     2        0                        
BC127x           1                BA00019          14.155022 4        2775     15       0                        
BC37b            1                BA00019          0.660001 34.8     65       2        0                        
BC37f            1                BA00019          10.120016 42       5330     1        0                        
BC37x            1                BA00019          191.280295 37       40       3        0                        
BC37d            1                BA00019          38.460059 46.8     6318     3        0                        
BC37e            1                BA00019          54.120084 42       6968     3        0                        
BC37a            1                BA00019          40.370062 44.4     5928     3        0                        
BC37c            1                BA00019          47.550073 43.2     5564     4        0                        
BC30p            1                BA00019          3.880006 7.2      990      9        0                        
BC39x            1                BA00019          105.710163 5        1        15       0                        
BL00025c1        1                BA00019          0        0        0.1      0        0                        
BC40b            1                BA00019          40.700063 40       1500     2        0                        
BC40a            1                BA00019          39.630061 37       2015     2        0                        
BC41a            1                BA00019          32.040049 55       4        2        0                        
BC41h            1                BA00019          58.40009 55       5        3        0                        
BC41f            1                BA00019          46.080071 1        1410     3        0                        
BC41j            1                BA00019          27.790043 1        2520     3        0                        
BC41k            1                BA00019          41.740064 22       10       1        0                        
BN00105c1        1                BA00019          0        0        0.1      0        0                        
BC41p            1                BA00019          120.340186 1        2820     2        0                        
BC41q            1                BA00019          37.980059 1        5350     1        0                        
BC41r            1                BA00019          45.63007 1        3230     1        0                        
BC41t            1                BA00019          19.100029 27       3825     1        0                        
BC41ta           1                BA00019          7.730012 27       3825     1        0                        
BC41w            1                BA00019          45.32007 27       485      2        0                        
BC41z            1                BA00019          8.300013 27       2300     1        0                        
BC41e2           1                BA00019          60.890094 8        182      2        0                        
121slw           1                BA00019          60.890094 8        5        2        0                        
BC41g            1                BA00019          40.670063 27       301      2        0                        
BN00330_132_132  1                BA00019          0        0        0.1      0        0                        
BC41o            1                BA00019          25.340039 2.7      7.6      1        0                        
BN00355_128_128  1                BA00019          0        0        0.1      0        0                        
BC41i            1                BA00019          41.900065 55       6        2        0                        
BC41b            1                BA00019          90.290139 16       4        2        0                        
BC41d            1                BA00019          12.450019 16       6        2        0                        
BC41l            1                BA00019          21.150033 16       4        2        0                        
BC41m            1                BA00019          28.310044 8        3        2        0                        
BC41n            1                BA00019          52.00008 8        1        4        0                        
BNA0085c1        1                BA00019          0        0        0.1      0        0                        
BC41v            1                BA00019          67.400104 27       187      2        0                        
BC41u            1                BA00019          61.440095 27       275      2        0                        
BC41s            1                BA00019          28.080043 27       150      2        0                        
132islw          1                BA00019          229.640355 27       5        2        0                        
BNC0045c1        1                BA00019          0        0        0.1      0        0                        
BC41x            1                BA00019          26.470041 27       111      2        0                        
120slw           1                BA00019          71.720111 27       5        2        0                        
BC30g            1                BA00019          333.189514 6.8      15       3        0                        
BP00115_1_1      1                BA00019          0        0        0.1      0        0                        
BP00135_2_2      1                BA00019          0        0        0.1      0        0                        
BC30h            1                BA00019          58.730091 10       30       1        0                        
BC30hX           1                BA00019          58.730091 54       1        1        0                        
BC30l            1                BA00019          27.260042 1        50       19       0                        
BQ00045_93_93    1                BA00019          0        0        0.1      0        0                        