[TITLE]
;;Project Title/Notes

[OPTIONS]
;;Option             Value
FLOW_UNITS           CFS
INFILTRATION         HORTON
FLOW_ROUTING         DYNWAVE
LINK_OFFSETS         DEPTH
MIN_SLOPE            0
ALLOW_PONDING        YES
SKIP_STEADY_STATE    NO

START_DATE           01/01/2002
START_TIME           00:00:00
REPORT_START_DATE    01/01/2002
REPORT_START_TIME    00:00:00
END_DATE             01/01/2002
END_TIME             12:00:00
SWEEP_START          01/01
SWEEP_END            12/31
DRY_DAYS             5.000000
REPORT_STEP          00:05:00
WET_STEP             00:05:00
DRY_STEP             01:00:00
ROUTING_STEP         0:00:30 

INERTIAL_DAMPING     NONE
NORMAL_FLOW_LIMITED  SLOPE
FORCE_MAIN_EQUATION  H-W
VARIABLE_STEP        0.75
LENGTHENING_STEP     5
MIN_SURFAREA         12.557
MAX_TRIALS           8
HEAD_TOLERANCE       0.001
SYS_FLOW_TOL         5
LAT_FLOW_TOL         5
MINIMUM_STEP         0
THREADS              1

[EVAPORATION]
;;Data Source    Parameters
;;-------------- ----------------
CONSTANT         0.0
DRY_ONLY         NO

[RAINGAGES]
;;Name           Format    Interval SCF      Source    
;;-------------- --------- ------ ------ ----------
1                INTENSITY 1:00     1.0      TIMESERIES MyStorm         

[SUBCATCHMENTS]
;;Name           Rain Gage        Outlet           Area     %Imperv  Width    %Slope   CurbLen  SnowPack        
;;-------------- ---------------- ---------------- -------- -------- -------- -------- -------- ----------------
; H16969
SUB-10           1                G1573118         9.741786 50.000000 100.000000 0.005000 0.000000                 
; H152106
SUB-100          1                H152106          0.096973 95.000000 100.000000 0.005000 0.000000                 
; G152210
SUB-1000         1                G152210          0.272865 25.000000 100.000000 0.005000 0.000000                 
; G152211
SUB-1002         1                G152211          0.221481 25.000000 100.000000 0.005000 0.000000                 
; G152217
SUB-1004         1                G152217          0.219671 25.000000 100.000000 0.005000 0.000000                 
; G152216
SUB-1006         1                G152216          0.216030 25.000000 100.000000 0.005000 0.000000                 
; G152181
SUB-1008         1                G152181          0.242292 85.000000 100.000000 0.005000 0.000000                 
; G152167
SUB-1010         1                G152167          0.252814 85.000000 100.000000 0.005000 0.000000                 
; G152180
SUB-1012         1                G152180          0.254202 85.000000 100.000000 0.005000 0.000000                 
; G152166
SUB-1014         1                G152166          0.257403 85.000000 100.000000 0.005000 0.000000                 
; G152171
SUB-1016         1                G152171          0.248712 85.000000 100.000000 0.005000 0.000000                 
; G152174
SUB-1018         1                G152174          0.241729 85.000000 100.000000 0.005000 0.000000                 
; H153470
SUB-102          1                H153470          0.086226 95.000000 100.000000 0.005000 0.000000                 
; G152173
SUB-1020         1                G152173          0.226432 90.000000 100.000000 0.005000 0.000000                 
; G152170
SUB-1022         1                G152170          0.220365 90.000000 100.000000 0.005000 0.000000                 
; G142533
SUB-1024         1                G142533          0.105260 100.000000 100.000000 0.005000 0.000000                 
; G142532
SUB-1026         1                G142532          0.127746 100.000000 100.000000 0.005000 0.000000                 
; G142531
SUB-1028         1                G142531          0.140556 100.000000 100.000000 0.005000 0.000000                 
; G142537
SUB-1030         1                G142537          0.496258 0.000000 100.000000 0.005000 0.000000                 
; G152530
SUB-1032         1                G152530          0.116709 85.000000 100.000000 0.005000 0.000000                 
; G152534
SUB-1034         1                G152534          0.142602 85.000000 100.000000 0.005000 0.000000                 
; G152535
SUB-1036         1                G152535          0.088849 85.000000 100.000000 0.005000 0.000000                 
; G152536
SUB-1038         1                G152536          0.244903 25.000000 100.000000 0.005000 0.000000                 
; H152111
SUB-104          1                H152111          2.196145 85.000000 100.000000 0.005000 0.000000                 
; G152521
SUB-1040         1                G152521          0.169591 95.000000 100.000000 0.005000 0.000000                 
; G152523
SUB-1042         1                G152523          0.088587 90.000000 100.000000 0.005000 0.000000                 
; G152522
SUB-1044         1                G152522          0.081262 90.000000 100.000000 0.005000 0.000000                 
; G152520
SUB-1046         1                G152520          0.223096 95.000000 100.000000 0.005000 0.000000                 
; G152518
SUB-1048         1                G152518          0.220721 95.000000 100.000000 0.005000 0.000000                 
; G152519
SUB-1050         1                G152519          0.125282 95.000000 100.000000 0.005000 0.000000                 
; G152507
SUB-1052         1                G152507          0.245821 95.000000 100.000000 0.005000 0.000000                 
; G152517
SUB-1054         1                G152517          0.306663 95.000000 100.000000 0.005000 0.000000                 
; H152284
SUB-1056         1                H152284          0.254313 85.000000 100.000000 0.005000 0.000000                 
; H152285
SUB-1058         1                H152285          0.343732 85.000000 100.000000 0.005000 0.000000                 
; H152120
SUB-106          1                H152120          0.085120 70.000000 100.000000 0.005000 0.000000                 
; H152282
SUB-1060         1                H152282          0.226169 85.000000 100.000000 0.005000 0.000000                 
; H152283
SUB-1062         1                H152283          0.452168 40.000000 100.000000 0.005000 0.000000                 
; H153591
SUB-1064         1                H153591          0.353710 90.000000 100.000000 0.005000 0.000000                 
; H153476
SUB-108          1                H153476          0.093306 35.000000 100.000000 0.005000 0.000000                 
; H153484
SUB-110          1                H153484          0.172610 100.000000 100.000000 0.005000 0.000000                 
; H153482
SUB-112          1                H153482          0.384957 85.000000 100.000000 0.005000 0.000000                 
; H153481
SUB-114          1                H153481          0.323519 85.000000 100.000000 0.005000 0.000000                 
; H153474
SUB-116          1                H153474          0.178770 85.000000 100.000000 0.005000 0.000000                 
; H153473
SUB-118          1                H153473          0.166606 85.000000 100.000000 0.005000 0.000000                 
; G152022
SUB-12           1                G152022          7.136773 25.000000 100.000000 0.005000 0.000000                 
; H153472
SUB-120          1                H153472          0.484899 80.000000 100.000000 0.005000 0.000000                 
; H153471
SUB-122          1                H153471          0.667150 80.000000 100.000000 0.005000 0.000000                 
; H153469
SUB-124          1                H153469          0.059314 85.000000 100.000000 0.005000 0.000000                 
; H153468
SUB-126          1                H153468          0.051348 80.000000 100.000000 0.005000 0.000000                 
; H153467
SUB-128          1                H153467          0.059340 80.000000 100.000000 0.005000 0.000000                 
; H153477
SUB-130          1                H153477          0.024629 40.000000 100.000000 0.005000 0.000000                 
; H153478
SUB-132          1                H153478          0.027974 40.000000 100.000000 0.005000 0.000000                 
; H153485
SUB-134          1                H153485          0.197836 85.000000 100.000000 0.005000 0.000000                 
; H153480
SUB-136          1                H153480          0.009565 95.000000 100.000000 0.005000 0.000000                 
; H153488
SUB-138          1                H153488          0.247480 95.000000 100.000000 0.005000 0.000000                 
; G152176
SUB-14           1                G152176          0.146725 90.000000 100.000000 0.005000 0.000000                 
; H153487
SUB-140          1                H153487          0.022048 95.000000 100.000000 0.005000 0.000000                 
; H153486
SUB-142          1                H153486          0.249460 95.000000 100.000000 0.005000 0.000000                 
; H153490
SUB-144          1                H153490          1.262186 95.000000 100.000000 0.005000 0.000000                 
; H153493
SUB-146          1                H153493          0.356663 100.000000 100.000000 0.005000 0.000000                 
; H153494
SUB-148          1                H153494          0.077048 100.000000 100.000000 0.005000 0.000000                 
; H153496
SUB-150          1                H153496          0.449948 95.000000 100.000000 0.005000 0.000000                 
; H153495
SUB-152          1                H153495          0.657602 95.000000 100.000000 0.005000 0.000000                 
; H152073
SUB-154          1                H152073          1.829128 85.000000 100.000000 0.005000 0.000000                 
; H153567
SUB-156          1                H153567          1.291271 95.000000 100.000000 0.005000 0.000000                 
; H152039
SUB-158          1                H152039          0.911251 95.000000 100.000000 0.005000 0.000000                 
; H153583
SUB-16           1                H153583          0.554726 95.000000 100.000000 0.005000 0.000000                 
; H152037
SUB-160          1                H152037          0.808039 100.000000 100.000000 0.005000 0.000000                 
; H152035
SUB-162          1                H152035          0.348398 85.000000 100.000000 0.005000 0.000000                 
; H152034
SUB-164          1                H152034          0.153238 75.000000 100.000000 0.005000 0.000000                 
; H153555
SUB-166          1                H153555          0.546219 90.000000 100.000000 0.005000 0.000000                 
; H153549
SUB-168          1                H153549          0.819301 95.000000 100.000000 0.005000 0.000000                 
; H153548
SUB-170          1                H153548          0.919767 85.000000 100.000000 0.005000 0.000000                 
; H153539
SUB-172          1                H153539          1.088576 95.000000 100.000000 0.005000 0.000000                 
; H153543
SUB-174          1                H153543          0.314332 25.000000 100.000000 0.005000 0.000000                 
; H153527
SUB-176          1                H153527          0.323195 75.000000 100.000000 0.005000 0.000000                 
; H153546
SUB-178          1                H153546          1.868963 25.000000 100.000000 0.005000 0.000000                 
; H153573
SUB-18           1                H153573          1.777063 50.000000 100.000000 0.005000 0.000000                 
; H153576
SUB-180          1                H153576          0.324547 90.000000 100.000000 0.005000 0.000000                 
; H153577
SUB-182          1                H153577          0.307572 100.000000 100.000000 0.005000 0.000000                 
; H153530
SUB-184          1                H153530          1.234037 80.000000 100.000000 0.005000 0.000000                 
; H153531
SUB-186          1                H153531          0.210707 90.000000 100.000000 0.005000 0.000000                 
; H153532
SUB-188          1                H153532          0.509864 35.000000 100.000000 0.005000 0.000000                 
; H153581
SUB-190          1                H153581          0.299036 95.000000 100.000000 0.005000 0.000000                 
; H153582
SUB-192          1                H153582          0.284119 80.000000 100.000000 0.005000 0.000000                 
; H153575
SUB-194          1                H153575          0.585424 80.000000 100.000000 0.005000 0.000000                 
; H153574
SUB-196          1                H153574          0.227771 100.000000 100.000000 0.005000 0.000000                 
; H153535
SUB-198          1                H153535          0.170330 100.000000 100.000000 0.005000 0.000000                 
; H153580
SUB-20           1                H153580          0.996952 40.000000 100.000000 0.005000 0.000000                 
; H152033
SUB-200          1                H152033          0.305227 90.000000 100.000000 0.005000 0.000000                 
; H152025
SUB-202          1                H152025          1.284883 25.000000 100.000000 0.005000 0.000000                 
; H152026
SUB-204          1                H152026          0.821752 75.000000 100.000000 0.005000 0.000000                 
; H152027
SUB-206          1                H152027          0.359083 90.000000 100.000000 0.005000 0.000000                 
; H152030
SUB-208          1                H152030          0.537838 85.000000 100.000000 0.005000 0.000000                 
; H153590
SUB-210          1                H153590          0.829335 25.000000 100.000000 0.005000 0.000000                 
; H152262
SUB-212          1                H152262          0.544208 85.000000 100.000000 0.005000 0.000000                 
; H152031
SUB-214          1                H152031          1.643042 95.000000 100.000000 0.005000 0.000000                 
; H152199
SUB-216          1                H152199          1.030741 35.000000 100.000000 0.005000 0.000000                 
; G152051
SUB-218          1                G152051          0.648508 25.000000 100.000000 0.005000 0.000000                 
; H153579
SUB-22           1                H153579          0.032409 100.000000 100.000000 0.005000 0.000000                 
; G1573148
SUB-220          1                G1573148         0.269028 25.000000 100.000000 0.005000 0.000000                 
; G1573147
SUB-222          1                G1573147         0.314164 25.000000 100.000000 0.005000 0.000000                 
; G152202
SUB-224          1                G152202          0.338542 25.000000 100.000000 0.005000 0.000000                 
; G152253
SUB-226          1                G152253          0.144848 25.000000 100.000000 0.005000 0.000000                 
; G1573152
SUB-228          1                G1573152         0.498941 25.000000 100.000000 0.005000 0.000000                 
; H152260
SUB-230          1                H152260          0.389730 50.000000 100.000000 0.005000 0.000000                 
; G1573136
SUB-232          1                G1573136         1.222676 25.000000 100.000000 0.005000 0.000000                 
; G152298
SUB-234          1                G152298          0.597824 40.000000 100.000000 0.005000 0.000000                 
; H152393
SUB-236          1                H152393          3.959697 75.000000 100.000000 0.005000 0.000000                 
; H152045
SUB-238          1                H152045          0.242564 25.000000 100.000000 0.005000 0.000000                 
; H153578
SUB-24           1                H153578          1.078172 100.000000 100.000000 0.005000 0.000000                 
; H152044
SUB-240          1                H152044          0.278311 90.000000 100.000000 0.005000 0.000000                 
; H153460
SUB-242          1                H153460          0.065893 80.000000 100.000000 0.005000 0.000000                 
; H152061
SUB-244          1                H152061          0.304529 100.000000 100.000000 0.005000 0.000000                 
; H152069
SUB-246          1                H152069          0.030089 80.000000 100.000000 0.005000 0.000000                 
; H152068
SUB-248          1                H152068          0.020802 80.000000 100.000000 0.005000 0.000000                 
; H152065
SUB-250          1                H152065          0.476115 100.000000 100.000000 0.005000 0.000000                 
; H152150
SUB-252          1                H152150          0.133380 90.000000 100.000000 0.005000 0.000000                 
; H152067
SUB-254          1                H152067          0.039771 80.000000 100.000000 0.005000 0.000000                 
; H153459
SUB-256          1                H153459          0.033882 80.000000 100.000000 0.005000 0.000000                 
; H153458
SUB-258          1                H153458          0.134697 80.000000 100.000000 0.005000 0.000000                 
; H152080
SUB-26           1                H152080          0.361921 100.000000 100.000000 0.005000 0.000000                 
; H152286
SUB-260          1                H152286          0.265980 85.000000 100.000000 0.005000 0.000000                 
; H153463
SUB-262          1                H153463          0.363889 85.000000 100.000000 0.005000 0.000000                 
; H153462
SUB-264          1                H153462          0.441699 85.000000 100.000000 0.005000 0.000000                 
; H152264
SUB-266          1                H152264          0.641942 100.000000 100.000000 0.005000 0.000000                 
; H152268
SUB-268          1                H152268          0.531226 90.000000 100.000000 0.005000 0.000000                 
; H152270
SUB-270          1                H152270          0.329639 80.000000 100.000000 0.005000 0.000000                 
; H152277
SUB-272          1                H152277          0.012168 80.000000 100.000000 0.005000 0.000000                 
; H153589
SUB-274          1                H153589          0.030459 80.000000 100.000000 0.005000 0.000000                 
; H152278
SUB-276          1                H152278          0.095576 80.000000 100.000000 0.005000 0.000000                 
; H152279
SUB-278          1                H152279          0.094053 80.000000 100.000000 0.005000 0.000000                 
; H152097
SUB-28           1                H152097          0.320970 35.000000 100.000000 0.005000 0.000000                 
; H153588
SUB-280          1                H153588          0.034529 80.000000 100.000000 0.005000 0.000000                 
; H152273
SUB-282          1                H152273          0.602476 25.000000 100.000000 0.005000 0.000000                 
; H152274
SUB-284          1                H152274          1.574533 75.000000 100.000000 0.005000 0.000000                 
; H152281
SUB-286          1                H152281          0.369606 90.000000 100.000000 0.005000 0.000000                 
; H152280
SUB-288          1                H152280          0.311697 85.000000 100.000000 0.005000 0.000000                 
; G152196
SUB-290          1                G152196          0.872121 25.000000 100.000000 0.005000 0.000000                 
; H152200
SUB-292          1                H152200          0.154601 90.000000 100.000000 0.005000 0.000000                 
; G1573142
SUB-294          1                G1573142         0.075263 90.000000 100.000000 0.005000 0.000000                 
; G152187
SUB-296          1                G152187          0.141092 90.000000 100.000000 0.005000 0.000000                 
; G152147
SUB-298          1                G152147          0.687220 85.000000 100.000000 0.005000 0.000000                 
; H153518
SUB-30           1                H153518          0.021823 80.000000 100.000000 0.005000 0.000000                 
; G152189
SUB-300          1                G152189          0.045049 25.000000 100.000000 0.005000 0.000000                 
; G152190
SUB-302          1                G152190          0.034948 25.000000 100.000000 0.005000 0.000000                 
; G152188
SUB-304          1                G152188          0.640057 80.000000 100.000000 0.005000 0.000000                 
; G152197
SUB-306          1                G152197          0.372765 90.000000 100.000000 0.005000 0.000000                 
; G152153
SUB-308          1                G152153          0.242934 90.000000 100.000000 0.005000 0.000000                 
; G1573131
SUB-310          1                G1573131         0.482842 100.000000 100.000000 0.005000 0.000000                 
; G1573132
SUB-312          1                G1573132         0.088494 25.000000 100.000000 0.005000 0.000000                 
; G1573131
SUB-314          1                G1573131         0.086994 100.000000 100.000000 0.005000 0.000000                 
; G1573130
SUB-316          1                G1573130         0.098561 25.000000 100.000000 0.005000 0.000000                 
; G1573129
SUB-318          1                G1573129         0.113613 100.000000 100.000000 0.005000 0.000000                 
; H153519
SUB-32           1                H153519          0.044499 95.000000 100.000000 0.005000 0.000000                 
; G1573128
SUB-320          1                G1573128         0.071621 25.000000 100.000000 0.005000 0.000000                 
; G152191
SUB-322          1                G152191          0.063941 95.000000 100.000000 0.005000 0.000000                 
; G152192
SUB-324          1                G152192          0.070150 95.000000 100.000000 0.005000 0.000000                 
; G1573126
SUB-326          1                G1573126         0.167473 90.000000 100.000000 0.005000 0.000000                 
; G152148
SUB-328          1                G152148          0.196430 90.000000 100.000000 0.005000 0.000000                 
; G152149
SUB-330          1                G152149          0.347858 90.000000 100.000000 0.005000 0.000000                 
; G152161
SUB-332          1                G152161          0.268188 90.000000 100.000000 0.005000 0.000000                 
; G152153
SUB-334          1                G152153          0.010932 90.000000 100.000000 0.005000 0.000000                 
; G152169
SUB-336          1                G152169          0.270891 90.000000 100.000000 0.005000 0.000000                 
; G152165
SUB-338          1                G152165          0.078583 90.000000 100.000000 0.005000 0.000000                 
; H153524
SUB-34           1                H153524          0.205168 35.000000 100.000000 0.005000 0.000000                 
; G152164
SUB-340          1                G152164          0.977146 80.000000 100.000000 0.005000 0.000000                 
; G152175
SUB-342          1                G152175          0.277772 85.000000 100.000000 0.005000 0.000000                 
; G152177
SUB-344          1                G152177          1.189256 80.000000 100.000000 0.005000 0.000000                 
; G152179
SUB-346          1                G152179          0.430444 70.000000 100.000000 0.005000 0.000000                 
; G152178
SUB-348          1                G152178          0.108260 85.000000 100.000000 0.005000 0.000000                 
; G152183
SUB-350          1                G152183          0.230863 85.000000 100.000000 0.005000 0.000000                 
; G152182
SUB-352          1                G152182          0.365100 85.000000 100.000000 0.005000 0.000000                 
; G152168
SUB-354          1                G152168          0.398879 85.000000 100.000000 0.005000 0.000000                 
; G1573134
SUB-356          1                G1573134         1.200925 40.000000 100.000000 0.005000 0.000000                 
; G1573133
SUB-358          1                G1573133         0.151405 25.000000 100.000000 0.005000 0.000000                 
; H153520
SUB-36           1                H153520          0.109741 85.000000 100.000000 0.005000 0.000000                 
; G152185
SUB-360          1                G152185          1.009615 85.000000 100.000000 0.005000 0.000000                 
; G1573137
SUB-362          1                G1573137         0.547567 100.000000 100.000000 0.005000 0.000000                 
; G152184
SUB-364          1                G152184          0.952126 35.000000 100.000000 0.005000 0.000000                 
; G152215
SUB-366          1                G152215          0.198486 60.000000 100.000000 0.005000 0.000000                 
; G152224
SUB-368          1                G152224          0.065051 25.000000 100.000000 0.005000 0.000000                 
; G152218
SUB-370          1                G152218          0.202849 25.000000 100.000000 0.005000 0.000000                 
; G152219
SUB-372          1                G152219          0.150371 50.000000 100.000000 0.005000 0.000000                 
; G152220
SUB-374          1                G152220          0.158751 50.000000 100.000000 0.005000 0.000000                 
; G152227
SUB-376          1                G152227          0.209905 40.000000 100.000000 0.005000 0.000000                 
; G152229
SUB-378          1                G152229          0.178147 70.000000 100.000000 0.005000 0.000000                 
; H153517
SUB-38           1                H153517          0.587028 80.000000 100.000000 0.005000 0.000000                 
; G152230
SUB-380          1                G152230          0.139218 50.000000 100.000000 0.005000 0.000000                 
; G152236
SUB-382          1                G152236          0.103885 25.000000 100.000000 0.005000 0.000000                 
; G152234
SUB-384          1                G152234          0.029362 80.000000 100.000000 0.005000 0.000000                 
; G152232
SUB-386          1                G152232          0.245055 100.000000 100.000000 0.005000 0.000000                 
; G152231
SUB-388          1                G152231          0.258999 100.000000 100.000000 0.005000 0.000000                 
; G152237
SUB-390          1                G152237          0.280606 25.000000 100.000000 0.005000 0.000000                 
; G152238
SUB-392          1                G152238          0.163190 40.000000 100.000000 0.005000 0.000000                 
; G152245
SUB-394          1                G152245          0.897444 90.000000 100.000000 0.005000 0.000000                 
; G152247
SUB-396          1                G152247          0.502352 75.000000 100.000000 0.005000 0.000000                 
; G1573156
SUB-398          1                G1573156         0.217163 35.000000 100.000000 0.005000 0.000000                 
; H153508
SUB-40           1                H153508          0.133367 80.000000 100.000000 0.005000 0.000000                 
; G1573157
SUB-400          1                G1573157         0.347425 80.000000 100.000000 0.005000 0.000000                 
; G1573190
SUB-402          1                G1573190         0.239026 90.000000 100.000000 0.005000 0.000000                 
; G152292
SUB-404          1                G152292          0.573762 70.000000 100.000000 0.005000 0.000000                 
; G152297
SUB-406          1                G152297          0.110162 80.000000 100.000000 0.005000 0.000000                 
; G152293
SUB-408          1                G152293          0.229295 80.000000 100.000000 0.005000 0.000000                 
; G152295
SUB-410          1                G152295          0.196283 80.000000 100.000000 0.005000 0.000000                 
; G152296
SUB-412          1                G152296          0.163405 80.000000 100.000000 0.005000 0.000000                 
; G1573174
SUB-414          1                G1573174         0.058494 80.000000 100.000000 0.005000 0.000000                 
; G152294
SUB-416          1                G152294          0.732086 80.000000 100.000000 0.005000 0.000000                 
; G152321
SUB-418          1                G152321          0.320719 80.000000 100.000000 0.005000 0.000000                 
; H153509
SUB-42           1                H153509          0.076991 80.000000 100.000000 0.005000 0.000000                 
; G152322
SUB-420          1                G152322          0.094020 80.000000 100.000000 0.005000 0.000000                 
; G1523191
SUB-422          1                G1523191         0.895273 100.000000 100.000000 0.005000 0.000000                 
; G152223
SUB-424          1                G152223          0.078567 50.000000 100.000000 0.005000 0.000000                 
; G1573193
SUB-426          1                G1573193         0.030064 50.000000 100.000000 0.005000 0.000000                 
; G1573192
SUB-428          1                G1573192         0.029152 50.000000 100.000000 0.005000 0.000000                 
; G152221
SUB-430          1                G152221          0.170307 80.000000 100.000000 0.005000 0.000000                 
; G1573176
SUB-432          1                G1573176         0.149315 80.000000 100.000000 0.005000 0.000000                 
; G1573175
SUB-434          1                G1573175         0.344505 100.000000 100.000000 0.005000 0.000000                 
; G152303
SUB-436          1                G152303          0.977757 80.000000 100.000000 0.005000 0.000000                 
; G1573170
SUB-438          1                G1573170         0.224987 85.000000 100.000000 0.005000 0.000000                 
; H153513
SUB-44           1                H153513          0.281457 50.000000 100.000000 0.005000 0.000000                 
; G1573171
SUB-440          1                G1573171         0.195542 85.000000 100.000000 0.005000 0.000000                 
; G152301
SUB-442          1                G152301          0.293039 85.000000 100.000000 0.005000 0.000000                 
; G152300
SUB-444          1                G152300          0.244811 85.000000 100.000000 0.005000 0.000000                 
; G152299
SUB-446          1                G152299          0.237629 85.000000 100.000000 0.005000 0.000000                 
; G152302