[OPTIONS]
;Option and Files Scenario Set: TEST
FLOW_UNITS	LPS
INFILTRATION	HORTON
FLOW_ROUTING	DYNWAVE
ALLOW_PONDING	YES
DRY_DAYS	5.000000
SKIP_STEADY_STATE 	NO
IGNORE_RAINFALL	YES
IGNORE_SNOWMELT	YES
IGNORE_GROUNDWATER	YES
IGNORE_QUALITY	YES
FORCE_MAIN_EQUATION	H-W
LINK_OFFSETS	DEPTH
MIN_SLOPE	0.000000
START_DATE	01/01/2016
START_TIME	00:00
END_DATE	01/01/2016
END_TIME	02:00
REPORT_START_DATE	01/01/2016
REPORT_START_TIME	00:00
SWEEP_START	01/01
SWEEP_END	12/31
WET_STEP	00:05:00
DRY_STEP	00:05:00
ROUTING_STEP	2
REPORT_STEP	00:05:00
INERTIAL_DAMPING	NONE
VARIABLE_STEP	1.750000
MINIMUM_STEP	0.000000
LENGTHENING_STEP	1
MIN_SURFAREA	0.000000
NORMAL_FLOW_LIMITED	BOTH
MAX_TRIALS	8
HEAD_TOLERANCE	0.000100

[FILES]

[RAINGAGES]

[HYDROGRAPHS]

[EVAPORATION]
CONSTANT	0.000000
DRY_ONLY	NO

[TEMPERATURE]
; BASE Run Climatology Settings

[ADJUSTMENTS]

[SUBCATCHMENTS]

[SUBAREAS]

[INFILTRATION]

[AQUIFERS]

[GROUNDWATER]

[GWF]

[SNOWPACKS]

[JUNCTIONS]
2525746_NODE1	-0.800000	0.000000	0.000000	10.000000	0.000000
; 1.05m Manhole
2657375	0.430000	1.320000	0.000000	0.000000	0.000000
; 1.05m Manhole
2657376	1.100000	0.400000	0.000000	0.000000	0.000000
; 1.05m Manhole
2657377	1.770000	0.231000	0.000000	0.000000	0.000000
; 1.05 m Manhole
2657379	1.184000	1.385000	0.000000	0.000000	0.000000
; 1.05m Manhole
2657381	1.660000	1.500000	0.000000	0.000000	0.000000
; 1.05m Manhole
2657382	1.110000	1.850000	0.000000	0.000000	0.000000
; 1.05m Manhole
2657383	0.720000	2.140000	0.000000	0.000000	0.000000
; 1.05m Manhole
2657384	0.870000	2.280000	0.000000	0.000000	0.000000
; 1.05m Manhole
2657385	-1.760000	3.650000	0.000000	0.000000	0.000000
; 1.05m Manhole
2657386	-2.230000	4.570000	0.000000	0.000000	0.000000
; 1.05m Manhole
2657387	-1.830000	4.110000	0.000000	0.000000	0.000000
; 1.05m Manhole
2657388	-1.500000	3.880000	0.000000	0.000000	0.000000
; 1.05m Manhole
2657389	-1.040000	3.390000	0.000000	0.000000	0.000000
; 1.05m Manhole
2657390	-0.810000	3.080000	0.000000	0.000000	0.000000
; 1.05m Manhole
2657391	-1.610000	4.340000	0.000000	0.000000	0.000000
; 1.05m Manhole
2657392	-0.380000	2.830000	0.000000	0.000000	0.000000
; 1.05m Manhole
2657393	-0.080000	2.400000	0.000000	0.000000	0.000000
; 1.05m Manhole
2657394	0.140000	2.350000	0.000000	0.000000	0.000000
; 1.05m Manhole
2657395	0.540000	1.930000	0.000000	0.000000	0.000000
; 1.05m Manhole
2657396	0.760000	1.780000	0.000000	0.000000	0.000000
; 1.05m Manhole
2657397	1.100000	1.360000	0.000000	0.000000	0.000000
; 1.05m Manhole
2657398	-0.320000	2.650000	0.000000	0.000000	0.000000
; 1.05m Manhole
2657399	-0.580000	2.700000	0.000000	0.000000	0.000000
; 1.05m Manhole
2657400	-0.880000	3.300000	0.000000	0.000000	0.000000
; 1.05m Manhole
2657401	-0.050000	2.590000	0.000000	0.000000	0.000000
; 1.05m Manhole
2657402	-1.140000	3.580000	0.000000	0.000000	0.000000
; 1.05m Manhole
2657403	-1.050000	3.440000	0.000000	0.000000	0.000000
; 1.05m Manhole
2657404	0.160000	1.840000	0.000000	0.000000	0.000000
; 1.05m Manhole
2657405	1.090000	1.380000	0.000000	0.000000	0.000000
; 1.05m Manhole
2657406	-0.030000	1.750000	0.000000	0.000000	0.000000
; 1.05m Manhole
2657407	-0.330000	2.590000	0.000000	0.000000	0.000000
; 1.05m Manhole
2657408	0.560000	1.900000	0.000000	0.000000	0.000000
; 1.05m Manhole
2657409	0.820000	1.610000	0.000000	0.000000	0.000000
; 1.05m Manhole
2657410	-2.380000	4.760000	0.000000	0.000000	0.000000
; 1.05m Manhole
2657411	-2.190000	4.460000	0.000000	0.000000	0.000000
; 1.05m Manhole
2657412	-2.040000	4.390000	0.000000	0.000000	0.000000
; 1.05m Manhole
2657413	-1.470000	4.020000	0.000000	0.000000	0.000000
; 1.05m Manhole
2657414	-0.120000	2.770000	0.000000	0.000000	0.000000
; 1.05m Manhole
2657415	-0.020000	2.630000	0.000000	0.000000	0.000000
; 1.05m Manhole
2657416	0.540000	1.920000	0.000000	0.000000	0.000000
; 1.05m Manhole
2657417	0.460000	2.060000	0.000000	0.000000	0.000000
; 1.05m Manhole
2657418	0.850000	1.580000	0.000000	0.000000	0.000000
; 1.05m Manhole
2657419	0.850000	1.630000	0.000000	0.000000	0.000000
; 1.05m Manhole
2657420	0.160000	2.310000	0.000000	0.000000	0.000000
; 1.05m Manhole
2657421	0.270000	1.910000	0.000000	0.000000	0.000000
; 1.05m Manhole
2657422	-0.240000	2.540000	0.000000	0.000000	0.000000
; 1.05m Manhole
2657423	0.510000	1.790000	0.000000	0.000000	0.000000
; 1.05m Manhole
2657424	0.500000	1.970000	0.000000	0.000000	0.000000
; 1.05m Manhole
2657425	0.230000	2.090000	0.000000	0.000000	0.000000
; 1.05m Manhole
2657426	0.740000	1.750000	0.000000	0.000000	0.000000
; 1.05m Manhole
2657427	-0.420000	2.710000	0.000000	0.000000	0.000000
; 1.05m Manhole
2657428	-0.150000	2.430000	0.000000	0.000000	0.000000
; 1.05m Manhole
2657429	0.440000	2.050000	0.000000	0.000000	0.000000
; 1.05m Manhole
2657430	0.340000	2.110000	0.000000	0.000000	0.000000
; 1.05m Manhole
2657431	0.110000	2.240000	0.000000	0.000000	0.000000
; 1.05m Manhole
2657432	-0.990000	3.360000	0.000000	0.000000	0.000000
; 1.05m Manhole
2657433	-0.660000	2.980000	0.000000	0.000000	0.000000
; 1.05m Manhole
2657434	-1.260000	3.760000	0.000000	0.000000	0.000000
; 1.05m Manhole
2657435	-0.700000	3.200000	0.000000	0.000000	0.000000
; 1.05m Manhole
2657436	-0.340000	2.640000	0.000000	0.000000	0.000000
; 1.05m Manhole
2657437	-0.320000	2.640000	0.000000	0.000000	0.000000
; 1.05m Manhole
2657438	0.720000	1.600000	0.000000	0.000000	0.000000
; 1.05m Manhole
2657439	0.140000	2.210000	0.000000	0.000000	0.000000
; 1.05m Manhole
2657440	-0.100000	2.400000	0.000000	0.000000	0.000000
; 1.05m Manhole
2657441	0.210000	2.160000	0.000000	0.000000	0.000000
; 1.05m Manhole
2657442	0.950000	1.530000	0.000000	0.000000	0.000000
; 1.05m Manhole
2657443	0.750000	1.570000	0.000000	0.000000	0.000000
; 1.05m Manhole
2657444	-0.060000	2.460000	0.000000	0.000000	0.000000
; 1.05m Manhole
2657445	0.620000	1.910000	0.000000	0.000000	0.000000
; 1.05m Manhole
2657446	0.160000	2.490000	0.000000	0.000000	0.000000
; 1.05m Manhole
2657447	0.690000	1.820000	0.000000	0.000000	0.000000
; 1.05m Manhole
2657448	1.220000	1.100000	0.000000	0.000000	0.000000
; 1.05m Manhole
2657449	0.540000	1.830000	0.000000	0.000000	0.000000
; 1.05m Manhole
2657450	1.130000	1.100000	0.000000	0.000000	0.000000
; 1.05m Manhole
2657451	0.120000	2.100000	0.000000	0.000000	0.000000
; 1.05m Manhole
2657452	0.850000	1.670000	0.000000	0.000000	0.000000
; 1.05m Manhole
2657453	0.250000	2.200000	0.000000	0.000000	0.000000
; 1.05m Manhole
2657454	-0.880000	3.290000	0.000000	0.000000	0.000000
; 1.05m Manhole
2657455	-0.940000	3.250000	0.000000	0.000000	0.000000
; 1.05m Manhole
2657456	-1.050000	3.320000	0.000000	0.000000	0.000000
; 1.05m Manhole
2657457	-1.140000	3.510000	0.000000	0.000000	0.000000
; 1.05m Manhole
2657458	-1.220000	3.600000	0.000000	0.000000	0.000000
; 1.05m Manhole
2657459	-1.370000	3.920000	0.000000	0.000000	0.000000
; 1.05m Manhole
2657460	-0.250000	2.940000	0.000000	0.000000	0.000000
; 1.05m Manhole
2657461	0.080000	2.410000	0.000000	0.000000	0.000000
; 1.05m Manhole
2657462	0.390000	2.110000	0.000000	0.000000	0.000000
; 1.05m Manhole
2657463	-1.460000	3.780000	0.000000	0.000000	0.000000
; 1.05m Manhole
2657464	-1.300000	3.580000	0.000000	0.000000	0.000000
; 1.05m Manhole
2657465	-1.070000	3.430000	0.000000	0.000000	0.000000
; 1.05m Manhole
2657466	-0.530000	3.020000	0.000000	0.000000	0.000000
; 1.05m Manhole
2657467	-0.030000	2.480000	0.000000	0.000000	0.000000
; 1.05m Manhole
2657468	0.530000	1.970000	0.000000	0.000000	0.000000
; 1.05m Manhole
2657469	-0.230000	2.710000	0.000000	0.000000	0.000000
; 1.05m Manhole
2657470	0.740000	1.770000	0.000000	0.000000	0.000000
; 1.05m Manhole
2657471	-0.260000	2.510000	0.000000	0.000000	0.000000
; 1.05m Manhole
2657472	0.950000	1.460000	0.000000	0.000000	0.000000
; 1.05m Manhole
2657473	-0.330000	2.730000	0.000000	0.000000	0.000000
; 1.05m Manhole
2657474	-0.200000	2.470000	0.000000	0.000000	0.000000
; 1.05m Manhole
2657475	-0.160000	2.460000	0.000000	0.000000	0.000000
; 1.05m Manhole
2657476	0.750000	1.420000	0.000000	0.000000	0.000000
; 1.05m Manhole
2657477	0.180000	2.230000	0.000000	0.000000	0.000000
; 1.05m Manhole
2657478	0.790000	1.450000	0.000000	0.000000	0.000000
; 1.05m Manhole
2657479	-0.030000	2.380000	0.000000	0.000000	0.000000
; 1.05m Manhole
2657480	0.140000	2.330000	0.000000	0.000000	0.000000
; 1.05m Manhole
2657481	0.460000	2.030000	0.000000	0.000000	0.000000
; 1.05m Manhole
2657482	0.610000	1.900000	0.000000	0.000000	0.000000
; 1.05m Manhole
2657483	-0.180000	2.540000	0.000000	0.000000	0.000000
; 1.05m Manhole
2657484	0.730000	1.650000	0.000000	0.000000	0.000000
; 1.05m Manhole
2657485	-0.070000	2.360000	0.000000	0.000000	0.000000
; 1.05m Manhole
2657486	-0.460000	2.900000	0.000000	0.000000	0.000000
; 1.05m Manhole
2657487	-0.660000	3.040000	0.000000	0.000000	0.000000
; 1.05m Manhole
2657488	0.430000	1.720000	0.000000	0.000000	0.000000
; 1.05m Manhole
2657489	0.880000	1.700000	0.000000	0.000000	0.000000
; 1.05m Manhole
2657490	0.920000	1.510000	0.000000	0.000000	0.000000
; 1.05m Manhole
2657491	-0.420000	2.620000	0.000000	0.000000	0.000000
; 1.05m Manhole
2657492	0.150000	2.160000	0.000000	0.000000	0.000000
; 1.05m Manhole
2657493	1.170000	1.450000	0.000000	0.000000	0.000000
; 1.05m Manhole
2657494	0.620000	1.870000	0.000000	0.000000	0.000000
; 1.05m Manhole
2657495	0.990000	1.490000	0.000000	0.000000	0.000000
; 1.05m Manhole
2657496	-0.930000	3.330000	0.000000	0.000000	0.000000
; 1.05m Manhole
2657497	-1.620000	4.070000	0.000000	0.000000	0.000000
; 1.05m Manhole
2657498	-1.710000	4.230000	0.000000	0.000000	0.000000
; 1.05m Manhole
2657499	-1.940000	4.370000	0.000000	0.000000	0.000000
; 1.05m Manhole
2657500	-0.490000	2.860000	0.000000	0.000000	0.000000
; 1.05m Manhole
2657501	-1.110000	2.810000	0.000000	0.000000	0.000000
; 1.05m Manhole
2657502	-1.160000	2.990000	0.000000	0.000000	0.000000
; 1.05m Manhole
2657503	-1.210000	3.500000	0.000000	0.000000	0.000000
; 1.05m Manhole
2657504	-0.940000	2.370000	0.000000	0.000000	0.000000
; 1.05m Manhole
2657505	-0.760000	3.070000	0.000000	0.000000	0.000000
; 1.05m Manhole
2657506	-0.630000	2.870000	0.000000	0.000000	0.000000
; 1.05m Manhole
2657507	-0.420000	2.720000	0.000000	0.000000	0.000000
; 1.05m Manhole
2657508	-0.200000	2.490000	0.000000	0.000000	0.000000
; 1.05m Manhole
2657509	-1.360000	3.860000	0.000000	0.000000	0.000000
; 1.05m Manhole
2657510	-1.240000	3.920000	0.000000	0.000000	0.000000
; 1.05m Manhole
2657511	-2.610000	4.630000	0.000000	0.000000	0.000000
; 1.05m Manhole
2657512	-2.240000	4.610000	0.000000	0.000000	0.000000
; 1.05m Manhole
2657513	-2.280000	4.780000	0.000000	0.000000	0.000000
; 1.05m Manhole
2657514	0.010000	2.280000	0.000000	0.000000	0.000000
; 1.05m Manhole
2657515	0.270000	2.050000	0.000000	0.000000	0.000000
; 1.05m Manhole
2657516	-0.020000	2.420000	0.000000	0.000000	0.000000
; 1.05m Manhole
2657517	0.950000	1.470000	0.000000	0.000000	0.000000
; 1.05m Manhole
2657518	-0.680000	3.160000	0.000000	0.000000	0.000000
; 1.05m Manhole
2657519	0.360000	2.160000	0.000000	0.000000	0.000000
; 1.05m Manhole
2657520	-0.590000	2.910000	0.000000	0.000000	0.000000
; 1.05m Manhole
2657521	-1.040000	3.360000	0.000000	0.000000	0.000000
; 1.05m Manhole
2657522	0.160000	2.070000	0.000000	0.000000	0.000000
; 1.05m Manhole
2657523	0.500000	1.830000	0.000000	0.000000	0.000000
; 1.05m Manhole
2657524	-0.370000	2.550000	0.000000	0.000000	0.000000
; 1.05m Manhole
2657525	-1.410000	3.890000	0.000000	0.000000	0.000000
; 1.05m Manhole
2657526	-1.950000	4.510000	0.000000	0.000000	0.000000
; 1.05m Manhole
2657527	0.040000	2.300000	0.000000	0.000000	0.000000
; 1.05m Manhole
2657528	-0.760000	3.020000	0.000000	0.000000	0.000000
; 1.05m Manhole
2657529	-0.270000	2.580000	0.000000	0.000000	0.000000
; 1.05m Manhole
2657530	-0.040000	2.350000	0.000000	0.000000	0.000000
; 1.05m Manhole
2657531	0.200000	1.020000	0.000000	0.000000	0.000000
; 1.05m Manhole
2657532	-0.860000	3.240000	0.000000	0.000000	0.000000
; 1.05m Manhole
2657533	-0.440000	2.970000	0.000000	0.000000	0.000000
; 1.05m Manhole
2657534	-0.230000	2.880000	0.000000	0.000000	0.000000
; 1.05m Manhole
2657535	-0.200000	2.650000	0.000000	0.000000	0.000000
; 1.05m Manhole
2657536	1.170000	1.520000	0.000000	0.000000	0.000000
; 1.05m Manhole
2657537	0.990000	1.520000	0.000000	0.000000	0.000000
; 1.05m Manhole
2657538	1.170000	1.160000	0.000000	0.000000	0.000000
; 1.05m Manhole
2657539	0.810000	1.470000	0.000000	0.000000	0.000000
; 1.05m Manhole
2657540	0.710000	1.810000	0.000000	0.000000	0.000000
; 1.05m Manhole
2657541	1.000000	1.500000	0.000000	0.000000	0.000000
; 1.05m Manhole
2657542	-0.040000	1.940000	0.000000	0.000000	0.000000
; 1.05m Manhole
2657543	0.500000	1.970000	0.000000	0.000000	0.000000
; 1.05m Manhole
2657544	-0.600000	2.990000	0.000000	0.000000	0.000000
; 1.05m Manhole
2657545	-0.210000	2.710000	0.000000	0.000000	0.000000
; 1.05m Manhole
2657546	0.600000	1.550000	0.000000	0.000000	0.000000
; 1.05m Manhole
2657547	0.500000	1.810000	0.000000	0.000000	0.000000
; 1.05m Manhole
2657548	0.340000	2.200000	0.000000	0.000000	0.000000
; 1.05m Manhole
2657549	0.780000	1.610000	0.000000	0.000000	0.000000
; 1.05m Manhole
2657550	-0.050000	2.340000	0.000000	0.000000	0.000000
; 1.05m Manhole
2657551	0.590000	1.740000	0.000000	0.000000	0.000000
; 1.05m Manhole
2657552	0.150000	2.030000	0.000000	0.000000	0.000000
; 1.05m Manhole
2657553	0.740000	1.720000	0.000000	0.000000	0.000000
; 1.05m Manhole
2657554	0.970000	1.480000	0.000000	0.000000	0.000000
; 1.05m Manhole
2657555	1.370000	1.190000	0.000000	0.000000	0.000000
; 1.05m Manhole
2657556	0.040000	2.300000	0.000000	0.000000	0.000000
; 1.05m Manhole
2657557	0.940000	1.360000	0.000000	0.000000	0.000000
; 1.05m Manhole
2657558	0.500000	1.840000	0.000000	0.000000	0.000000
; 1.05m Manhole
2657559	0.360000	2.050000	0.000000	0.000000	0.000000
; 1.05m Manhole
2657560	-0.110000	2.560000	0.000000	0.000000	0.000000
; 1.05m Manhole
2657561	-0.640000	3.240000	0.000000	0.000000	0.000000
; 1.05m Manhole
2657562	-0.540000	2.840000	0.000000	0.000000	0.000000
; 1.05m Manhole
2657563	0.180000	2.390000	0.000000	0.000000	0.000000
; 1.05m Manhole
2657564	0.960000	1.470000	0.000000	0.000000	0.000000
; 1.05m Manhole
2657565	-1.920000	4.270000	0.000000	0.000000	0.000000
; 1.05m Manhole
2657566	0.150000	2.280000	0.000000	0.000000	0.000000
; 1.05m Manhole
2657567	0.700000	1.710000	0.000000	0.000000	0.000000
; 1.05m Manhole
2657568	0.890000	1.510000	0.000000	0.000000	0.000000
; 1.05m Manhole
2657569	-1.420000	3.800000	0.000000	0.000000	0.000000
; 1.05m Manhole
2657570	-0.430000	2.880000	0.000000	0.000000	0.000000
; 1.05m Manhole
2657571	0.140000	2.190000	0.000000	0.000000	0.000000
; 1.05m Manhole
2657572	0.340000	1.990000	0.000000	0.000000	0.000000
; 1.05m Manhole
2657573	0.880000	1.570000	0.000000	0.000000	0.000000
; 1.05m Manhole
2657574	-1.250000	3.520000	0.000000	0.000000	0.000000
; 1.05m Manhole
2657575	-0.980000	3.250000	0.000000	0.000000	0.000000
; 1.05m Manhole
2657576	-1.020000	3.410000	0.000000	0.000000	0.000000
; 1.05m Manhole
2657577	-0.470000	2.790000	0.000000	0.000000	0.000000
; 1.05m Manhole
2657578	-0.110000	2.700000	0.000000	0.000000	0.000000
; 1.05m Manhole
2657579	-0.270000	2.780000	0.000000	0.000000	0.000000
; 1.05m Manhole
2657580	-0.680000	3.320000	0.000000	0.000000	0.000000
; 1.05m Manhole
2657581	0.410000	1.880000	0.000000	0.000000	0.000000
; 1.05m Manhole
2657582	-0.130000	2.590000	0.000000	0.000000	0.000000
; 1.05m Manhole
2657583	0.820000	1.650000	0.000000	0.000000	0.000000
; 1.05m Manhole
2657584	-0.400000	2.730000	0.000000	0.000000	0.000000
; 1.05m Manhole
2657585	0.510000	1.820000	0.000000	0.000000	0.000000
; 1.05m Manhole
2657586	0.080000	2.370000	0.000000	0.000000	0.000000
; 1.05m Manhole
2657587	1.160000	1.270000	0.000000	0.000000	0.000000
; 1.05m Manhole
2657588	0.370000	1.740000	0.000000	0.000000	0.000000
; 1.05m Manhole
2657589	1.060000	1.440000	0.000000	0.000000	0.000000
; 1.05m Manhole
2657590	0.500000	1.820000	0.000000	0.000000	0.000000
; 1.05m Manhole
2657591	1.170000	1.190000	0.000000	0.000000	0.000000
; 1.05m Manhole
2657592	0.710000	1.450000	0.000000	0.000000	0.000000
; 1.05m Manhole
2657593	1.160000	1.400000	0.000000	0.000000	0.000000
; 1.05m Manhole
2657594	-0.920000	3.330000	0.000000	0.000000	0.000000
; 1.05m Manhole
2657595	-0.680000	3.120000	0.000000	0.000000	0.000000
; 1.05m Manhole
2657596	1.000000	1.360000	0.000000	0.000000	0.000000
; 1.05m Manhole
2657597	0.800000	1.670000	0.000000	0.000000	0.000000
; 1.05m Manhole
2657598	0.610000	1.940000	0.000000	0.000000	0.000000
; 1.05m Manhole
2657599	-0.100000	2.520000	0.000000	0.000000	0.000000
; 1.05m Manhole
2657600	-2.800000	5.110000	0.000000	0.000000	0.000000
; 1.05m Manhole
2657601	-0.060000	2.420000	0.000000	0.000000	0.000000
; 1.05m Manhole
2657602	0.440000	2.110000	0.000000	0.000000	0.000000
; 1.05m Manhole
2657603	0.550000	2.040000	0.000000	0.000000	0.000000
; 1.05m Manhole
2657604	1.060000	1.670000	0.000000	0.000000	0.000000
; 1.05m Manhole
2657605	1.100000	1.390000	0.000000	0.000000	0.000000
; 1.05m Manhole
2657606	0.310000	2.020000	0.000000	0.000000	0.000000
; 1.05m Manhole
2657607	-0.220000	2.650000	0.000000	0.000000	0.000000
; 1.05m Manhole
2657608	-0.380000	2.680000	0.000000	0.000000	0.000000
; 1.05m Manhole
2657609	-0.610000	2.930000	0.000000	0.000000	0.000000
; 1.05m Manhole
2657610	-1.030000	3.360000	0.000000	0.000000	0.000000
; 1.05m Manhole
2657611	-0.440000	2.780000	0.000000	0.000000	0.000000
; 1.05m Manhole
2657612	1.020000	1.340000	0.000000	0.000000	0.000000
; 1.05m Manhole
2657613	0.300000	2.050000	0.000000	0.000000	0.000000
; 1.05m Manhole
2657614	0.740000	1.770000	0.000000	0.000000	0.000000
; 1.05m Manhole
2657615	-0.470000	2.970000	0.000000	0.000000	0.000000
; 1.05m Manhole
2657616	0.120000	2.280000	0.000000	0.000000	0.000000
; 1.05m Manhole
2657617	0.770000	1.650000	0.000000	0.000000	0.000000
; 1.05m Manhole
2657618	-0.210000	2.560000	0.000000	0.000000	0.000000
; 1.05m Manhole
2657619	0.380000	2.410000	0.000000	0.000000	0.000000
; 1.05m Manhole
2657620	1.230000	1.270000	0.000000	0.000000	0.000000
; 1.05 m Manhole
2657621	0.080000	2.800000	0.000000	0.000000	0.000000
; 1.05m Manhole
2657622	-0.630000	3.630000	0.000000	0.000000	0.000000
; 1.05m Manhole
2657623	1.240000	2.510000	0.000000	0.000000	0.000000
; 1.05m Manhole
2657624	0.940000	2.400000	0.000000	0.000000	0.000000
; 1.05m Manhole
2657625	1.030000	2.140000	0.000000	0.000000	0.000000
; 1.05m Manhole
2657626	1.890000	1.410000	0.000000	0.000000	0.000000
; 1.05m Manhole
2657627	0.820000	2.190000	0.000000	0.000000	0.000000
; 1.05m Manhole
2657628	0.500000	2.510000	0.000000	0.000000	0.000000
; 1.05m Manhole
2657629	1.980000	1.220000	0.000000	0.000000	0.000000
; 1.05m Manhole
2657630	1.510000	2.140000	0.000000	0.000000	0.000000
; 1.05m Manhole
2657631	1.300000	2.050000	0.000000	0.000000	0.000000
; 1.05m Manhole
2657632	1.670000	1.940000	0.000000	0.000000	0.000000
; 1.05m Manhole
2657633	1.780000	1.860000	0.000000	0.000000	0.000000
; 1.05m Manhole
2657634	2.040000	1.810000	0.000000	0.000000	0.000000
; 1.05m Manhole
2657635	2.400000	1.350000	0.000000	0.000000	0.000000
; 1.05m Manhole
2657636	2.280000	1.520000	0.000000	0.000000	0.000000
; 1.05m Manhole
2657637	1.550000	2.110000	0.000000	0.000000	0.000000
; 1.05m Manhole
2657638	1.360000	2.220000	0.000000	0.000000	0.000000
; 1.05m Manhole
2657639	0.990000	2.290000	0.000000	0.000000	0.000000
; 1.05m Manhole
2657640	2.700000	1.120000	0.000000	0.000000	0.000000
; 1.05m Manhole
2657641	2.510000	0.940000	0.000000	0.000000	0.000000
; 1.05m Manhole
2657642	0.640000	2.410000	0.000000	0.000000	0.000000
; 1.05m Manhole
2657643	0.520000	2.580000	0.000000	0.000000	0.000000
; 1.05m Manhole
2657644	2.310000	1.550000	0.000000	0.000000	0.000000
; 1.05m Manhole
2657645	1.410000	1.990000	0.000000	0.000000	0.000000
; 1.05m Manhole
2657646	1.020000	2.260000	0.000000	0.000000	0.000000
; 1.05m Manhole
2657647	0.640000	2.720000	0.000000	0.000000	0.000000
; 1.05m Manhole
2657648	0.450000	2.660000	0.000000	0.000000	0.000000
; 1.05m Manhole
2657649	0.250000	2.890000	0.000000	0.000000	0.000000
; 1.05m Manhole
2657650	-0.350000	3.280000	0.000000	0.000000	0.000000
; 1.05m Manhole
2657651	0.090000	3.030000	0.000000	0.000000	0.000000
; 1.05m Manhole
2657652	-0.620000	3.470000	0.000000	0.000000	0.000000
; 1.05m Manhole
2657653	-0.750000	3.850000	0.000000	0.000000	0.000000
; 1.05m Manhole
2657654	-0.920000	3.700000	0.000000	0.000000	0.000000
; 1.05m Manhole
2657655	-0.780000	3.580000	0.000000	0.000000	0.000000
; 1.05m Manhole
2657656	-0.370000	3.500000	0.000000	0.000000	0.000000
; 1.05m Manhole
2657657	0.010000	3.150000	0.000000	0.000000	0.000000
; 1.05m Manhole
2657658	0.350000	2.830000	0.000000	0.000000	0.000000
; 1.05m Manhole
2657659	1.240000	2.160000	0.000000	0.000000	0.000000
; 1.05m Manhole
2657660	2.220000	1.500000	0.000000	0.000000	0.000000
; 1.05m Manhole
2657661	2.050000	1.550000	0.000000	0.000000	0.000000
; 1.05m Manhole
2657662	1.810000	1.850000	0.000000	0.000000	0.000000
; 1.05m Manhole
2657663	2.300000	1.380000	0.000000	0.000000	0.000000
; 1.05m Manhole
2657664	2.570000	1.020000	0.000000	0.000000	0.000000
; 1.05m Manhole
2657665	2.110000	1.540000	0.000000	0.000000	0.000000
; 1.05m Manhole
2657666	1.860000	1.490000	0.000000	0.000000	0.000000
; 1.05m Manhole
2657667	0.450000	2.630000	0.000000	0.000000	0.000000
; 1.05m Manhole
2657668	0.050000	2.350000	0.000000	0.000000	0.000000
; 1.05m Manhole
2657669	0.290000	2.610000	0.000000	0.000000	0.000000
; 1.05m Manhole
2657670	0.360000	2.480000	0.000000	0.000000	0.000000
; 1.05m Manhole
2657671	2.110000	2.030000	0.000000	0.000000	0.000000
; 1.05m Manhole
2657672	1.690000	2.450000	0.000000	0.000000	0.000000
; 1.05m Manhole
2657673	0.820000	2.830000	0.000000	0.000000	0.000000
; 1.05m Manhole
2657674	0.660000	2.730000	0.000000	0.000000	0.000000
; 1.05m Manhole
2657675	1.950000	1.090000	0.000000	0.000000	0.000000
; 1.05m Manhole
2657676	1.560000	1.020000	0.000000	0.000000	0.000000
; 1.05m Manhole
2657677	-0.720000	3.080000	0.000000	0.000000	0.000000
; 1.05m Manhole
2657678	-0.600000	2.870000	0.000000	0.000000	0.000000
; 1.05m Manhole
2657679	-0.350000	2.680000	0.000000	0.000000	0.000000
; 1.05m Manhole
2657680	1.080000	1.120000	0.000000	0.000000	0.000000
; 1.05m Manhole
2657681	-0.620000	2.950000	0.000000	0.000000	0.000000
; 1.05m Manhole
; MH invert is higher than the connecting pipe invert. Thus MH invert = d/s pipe
;  invert is assumed.
2657682	-0.780000	3.080000	0.000000	0.000000	0.000000
; 1.05m Manhole
2657683	-1.030000	3.290000	0.000000	0.000000	0.000000
; 1.05m Manhole
2657684	-1.490000	4.150000	0.000000	0.000000	0.000000
; 1.05m Manhole
2657685	-1.210000	3.990000	0.000000	0.000000	0.000000
; 1.05m Manhole
2657686	-1.090000	3.760000	0.000000	0.000000	0.000000
; 1.05m Manhole
2657687	1.480000	2.050000	0.000000	0.000000	0.000000
; 1.05m Manhole
2657688	1.670000	1.570000	0.000000	0.000000	0.000000
; 1.05m Manhole
2657690	1.850000	1.730000	0.000000	0.000000	0.000000
; 1.05m Manhole
2657691	2.000000	1.300000	0.000000	0.000000	0.000000
; 1.05m Manhole
2657692	2.200000	1.050000	0.000000	0.000000	0.000000
; 1.05m Manhole
2657693	1.580000	1.740000	0.000000	0.000000	0.000000
; 1.05m Manhole
2657694	1.400000	1.800000	0.000000	0.000000	0.000000
; 1.05m Manhole
2657695	2.550000	1.320000	0.000000	0.000000	0.000000
; 1.05m Manhole
2657696	-0.020000	2.490000	0.000000	0.000000	0.000000
; 1.05m Manhole
2657697	-0.770000	3.970000	0.000000	0.000000	0.000000
; 1.05m Manhole
2657698	-0.920000	4.060000	0.000000	0.000000	0.000000
; 1.05m Manhole
2657699	-1.510000	3.880000	0.000000	0.000000	0.000000
; 1.05m Manhole
2657700	-0.810000	3.980000	0.000000	0.000000	0.000000
; 1.05m Manhole
2657701	-0.750000	3.940000	0.000000	0.000000	0.000000
; 1.05m Manhole
2657702	0.920000	2.240000	0.000000	0.000000	0.000000
; 1.05m Manhole
2657703	0.810000	1.690000	0.000000	0.000000	0.000000
; 1.05 m Manhole
2657704	0.010000	2.910000	0.000000	0.000000	0.000000
; 1.05m Manhole
; MH invert is changed to d/s pipe invert.
2657705	-0.510000	4.720000	0.000000	0.000000	0.000000
; 1.05 m Manhole
2657706	0.280000	2.600000	0.000000	0.000000	0.000000
; 1.05m Manhole
2657707	0.450000	2.630000	0.000000	0.000000	0.000000
; 1.05m Manhole
2657709	0.760000	2.140000	0.000000	0.000000	0.000000
; 1.05m Manhole
2657710	1.430000	1.640000	0.000000	0.000000	0.000000
; 1.05m Manhole
2657711	0.710000	2.210000	0.000000	0.000000	0.000000
; 1.05m Manhole
2657712	0.960000	1.990000	0.000000	0.000000	0.000000
; 1.05m Manhole
2657713	-0.300000	3.320000	0.000000	0.000000	0.000000
; 1.05m Manhole
2657714	0.790000	2.110000	0.000000	0.000000	0.000000
; 1.05m Manhole
2657715	1.290000	1.640000	0.000000	0.000000	0.000000
; 1.05m Manhole
2657716	-2.050000	4.350000	0.000000	0.000000	0.000000
; 1.05m Manhole
2657717	-2.230000	4.430000	0.000000	0.000000	0.000000
; 1.05m Manhole
2657718	-1.770000	4.190000	0.000000	0.000000	0.000000
; 1.05m Manhole
2657719	-1.600000	4.010000	0.000000	0.000000	0.000000
; 1.05m Manhole
2657720	-1.520000	3.830000	0.000000	0.000000	0.000000
; 1.05 m Manhole
2657721	-1.420000	3.760000	0.000000	0.000000	0.000000
; 1.05m Manhole
2657722	-0.800000	3.490000	0.000000	0.000000	0.000000
; 1.05m Manhole
2657723	-2.030000	4.450000	0.000000	0.000000	0.000000
; 1.05m Manhole
2657724	-2.250000	4.620000	0.000000	0.000000	0.000000
; 1.05m Manhole
2657725	-2.610000	5.210000	0.000000	0.000000	0.000000
; 1.05m Manhole
2657726	-2.550000	5.020000	0.000000	0.000000	0.000000
; 1.05m Manhole
2657727	-2.490000	4.640000	0.000000	0.000000	0.000000
; 1.05m Manhole
2657728	-2.430000	4.590000	0.000000	0.000000	0.000000
; 1.05m Manhole
2657729	-2.330000	4.490000	0.000000	0.000000	0.000000
; 1.05m Manhole
2657730	-1.660000	3.890000	0.000000	0.000000	0.000000
; 1.05m Manhole
2657731	-1.400000	3.660000	0.000000	0.000000	0.000000
; 1.05m Manhole
2657732	-1.210000	3.500000	0.000000	0.000000	0.000000
; 1.05m Manhole
2657733	-1.000000	3.180000	0.000000	0.000000	0.000000
; 1.05m Manhole
2657734	-0.030000	2.360000	0.000000	0.000000	0.000000
; 1.05 m Manhole
2657738	0.830000	2.250000	0.000000	0.000000	0.000000
; 1.05m Manhole
; MH invert changed to d/s pipe invert (1.17 m)
2657739	1.170000	1.990000	0.000000	0.000000	0.000000
; 1.05m Manhole
2657740	1.180000	2.000000	0.000000	0.000000	0.000000
; 1.05m Manhole
2657741	1.840000	1.160000	0.000000	0.000000	0.000000
; 1.05m Manhole
2657742	1.810000	1.740000	0.000000	0.000000	0.000000
; 1.05 m Manhole
2657743	-1.170000	3.500000	0.000000	0.000000	0.000000
; 1.05m Manhole
2657744	-0.940000	3.510000	0.000000	0.000000	0.000000
; 1.05m Manhole
2657745	-0.750000	3.040000	0.000000	0.000000	0.000000
; 1.05m Manhole
2657746	-0.640000	3.000000	0.000000	0.000000	0.000000
; 1.05m Manhole
2657747	-0.520000	2.620000	0.000000	0.000000	0.000000
; 1.05m Manhole
2657748	-0.460000	2.560000	0.000000	0.000000	0.000000
; 1.05m Manhole
2657749	-0.300000	1.980000	0.000000	0.000000	0.000000
; 1.05m Manhole
2657750	-0.160000	2.450000	0.000000	0.000000	0.000000
; 1.05m Manhole
2657751	0.590000	1.790000	0.000000	0.000000	0.000000
; 1.05m Manhole
2657752	-0.600000	3.080000	0.000000	0.000000	0.000000
; 1.05m Manhole
2657753	-0.290000	2.630000	0.000000	0.000000	0.000000
; 1.05m Manhole
2657754	-0.180000	2.540000	0.000000	0.000000	0.000000
; 1.05m Manhole
2657755	0.880000	1.660000	0.000000	0.000000	0.000000
; 1.05m Manhole
2657756	1.040000	1.260000	0.000000	0.000000	0.000000
; 1.05m Manhole
2657757	-1.670000	3.460000	0.000000	0.000000	0.000000
; 1.05m Manhole
2657758	-1.510000	3.820000	0.000000	0.000000	0.000000
; 1.05m Manhole
2657759	-1.250000	3.350000	0.000000	0.000000	0.000000
; 1.05m Manhole
2657760	-0.990000	2.960000	0.000000	0.000000	0.000000
; 1.05m Manhole
2657761	-0.800000	2.900000	0.000000	0.000000	0.000000
; 1.05m Manhole
2657762	-0.620000	3.200000	0.000000	0.000000	0.000000
; 1.05m Manhole
2657763	-0.370000	3.420000	0.000000	0.000000	0.000000
; 1.05m Manhole
2657764	-0.110000	3.400000	0.000000	0.000000	0.000000
; 1.05m Manhole
2657765	0.040000	3.290000	0.000000	0.000000	0.000000
; 1.05m Manhole
2657766	0.200000	3.160000	0.000000	0.000000	0.000000
; 1.05m Manhole
2657767	0.940000	2.390000	0.000000	0.000000	0.000000
; 1.05m Manhole
2657769	-1.340000	5.130000	0.000000	0.000000	0.000000
; 1.05m Manhole
2657770	-1.050000	4.960000	0.000000	0.000000	0.000000
; 1.05m Manhole
2657771	-0.790000	4.800000	0.000000	0.000000	0.000000
; 1.05m Manhole
2657772	-0.090000	3.590000	0.000000	0.000000	0.000000
; 1.05m Manhole
2657773	-0.270000	3.940000	0.000000	0.000000	0.000000
; 1.05m Manhole
2657774	-0.380000	3.810000	0.000000	0.000000	0.000000
; 1.05m Manhole
2657775	-0.490000	4.360000	0.000000	0.000000	0.000000
; 1.05m Manhole
2657776	-0.600000	4.490000	0.000000	0.000000	0.000000
; 1.05m Manhole
2657777	-0.710000	4.530000	0.000000	0.000000	0.000000
; 1.05m Manhole
2657778	-1.350000	5.190000	0.000000	0.000000	0.000000
; 1.05m Manhole
2657779	-1.170000	4.600000	0.000000	0.000000	0.000000
; 1.05m Manhole
2657780	1.290000	2.010000	0.000000	0.000000	0.000000
; 1.05m Manhole
2657781	1.060000	2.350000	0.000000	0.000000	0.000000
; 1.05m Manhole
2657782	0.710000	2.650000	0.000000	0.000000	0.000000
; 1.05m Manhole
2657783	0.310000	3.610000	0.000000	0.000000	0.000000
; 1.05m Manhole
2657784	0.190000	3.370000	0.000000	0.000000	0.000000
; 1.05m Manhole
2657785	0.100000	3.510000	0.000000	0.000000	0.000000
; 1.05m Manhole
2657786	1.420000	1.810000	0.000000	0.000000	0.000000
; 1.05m Manhole
2657787	1.560000	2.020000	0.000000	0.000000	0.000000
; 1.05m Manhole
2657788	-1.760000	4.340000	0.000000	0.000000	0.000000
; 1.05m Manhole
2657789	-1.600000	4.030000	0.000000	0.000000	0.000000
; 1.05m Manhole
2657790	-1.480000	3.860000	0.000000	0.000000	0.000000
; 1.05m Manhole
2657791	-1.380000	3.580000	0.000000	0.000000	0.000000
; 1.05m Manhole
2657792	-1.090000	3.440000	0.000000	0.000000	0.000000
; 1.05m Manhole
2657793	-1.000000	3.300000	0.000000	0.000000	0.000000
; 1.05m Manhole
2657794	1.290000	1.060000	0.000000	0.000000	0.000000
; 1.05m Manhole
2657795	-2.570000	4.520000	0.000000	0.000000	0.000000
; 1.05m Manhole
2657796	-2.420000	4.490000	0.000000	0.000000	0.000000