[TITLE]
;;Project Title/Notes

[OPTIONS]
;;Option             Value
FLOW_UNITS           CFS
INFILTRATION         HORTON
FLOW_ROUTING         KINWAVE
LINK_OFFSETS         DEPTH
MIN_SLOPE            0
ALLOW_PONDING        NO
SKIP_STEADY_STATE    NO

IGNORE_RAINFALL      YES
IGNORE_SNOWMELT      YES
IGNORE_GROUNDWATER   YES
IGNORE_QUALITY       YES
START_DATE           01/01/2002
START_TIME           00:00:00
REPORT_START_DATE    01/01/2002
REPORT_START_TIME    00:00:00
END_DATE             01/01/2002
END_TIME             06:00:00
SWEEP_START          01/01
SWEEP_END            12/31
DRY_DAYS             5.000000
REPORT_STEP          00:05:00
WET_STEP             00:05:00
DRY_STEP             01:00:00
ROUTING_STEP         0:01:00 

INERTIAL_DAMPING     NONE
NORMAL_FLOW_LIMITED  SLOPE
FORCE_MAIN_EQUATION  H-W
VARIABLE_STEP        0.75
LENGTHENING_STEP     0
MIN_SURFAREA         0
MAX_TRIALS           0
HEAD_TOLERANCE       0
SYS_FLOW_TOL         5
LAT_FLOW_TOL         5
MINIMUM_STEP         0.5
THREADS              1

[EVAPORATION]
;;Data Source    Parameters
;;-------------- ----------------
CONSTANT         0.0
DRY_ONLY         NO

[RAINGAGES]
;;Name           Format    Interval SCF      Source    
;;-------------- --------- ------ ------ ----------
RAINGAGE-1       INTENSITY 0.083333 1.000000 TIMESERIES HALLERLAKE78    

[SUBCATCHMENTS]
;;Name           Rain Gage        Outlet           Area     %Imperv  Width    %Slope   CurbLen  SnowPack        
;;-------------- ---------------- ---------------- -------- -------- -------- -------- -------- ----------------
SUB-10           RAINGAGE-1       SMH1985G05       298.226373 25.000000 500.000000 0.500000 0.000000                 
; S1-23-45
SUB-100          RAINGAGE-1       SMH0284X01       45.465210 25.000000 500.000000 0.500000 0.000000                 
; S2-8-46
SUB-102          RAINGAGE-1       SMH1384C01       70.701036 25.000000 500.000000 0.500000 0.000000                 
; S1-22-47
SUB-104          RAINGAGE-1       SMH0284Q04       47.696545 25.000000 500.000000 0.500000 0.000000                 
; S1-22-48
SUB-106          RAINGAGE-1       SMH0284S02       123.330576 25.000000 500.000000 0.500000 0.000000                 
; S2-10-49
SUB-108          RAINGAGE-1       SMH1384S20       123.554946 25.000000 500.000000 0.500000 0.000000                 
; S1-25-50
SUB-110          RAINGAGE-1       SMH1284V02       147.045504 25.000000 500.000000 0.500000 0.000000                 
; S2-5-53
SUB-116          RAINGAGE-1       SMH0885D06       49.725003 25.000000 500.000000 0.500000 0.000000                 
; S2-3-54
SUB-118          RAINGAGE-1       SMH0585V16       48.657560 25.000000 500.000000 0.500000 0.000000                 
; S2-2n-1
SUB-12           RAINGAGE-1       SMH1885X03       91.721752 25.000000 500.000000 0.500000 0.000000                 
; S2-5-55
SUB-120          RAINGAGE-1       SMH0785A12       60.295703 25.000000 500.000000 0.500000 0.000000                 
; S3-3-56
SUB-122          RAINGAGE-1       SMH2085J02       347.519269 25.000000 500.000000 0.500000 0.000000                 
; S3-3-57
SUB-124          RAINGAGE-1       SMH1785Z01       226.752756 25.000000 500.000000 0.500000 0.000000                 
; NG14-60
SUB-130          RAINGAGE-1       SMH0685F03       36.064051 25.000000 500.000000 0.500000 0.000000                 
; NG21-61
SUB-132          RAINGAGE-1       SMH1284J09       43.993553 25.000000 500.000000 0.500000 0.000000                 
; S2-2-62
SUB-134          RAINGAGE-1       SMH0885F01       54.846239 25.000000 500.000000 0.500000 0.000000                 
; S2-6-63
SUB-136          RAINGAGE-1       SMH0785R04       18.775657 25.000000 500.000000 0.500000 0.000000                 
; S2-12-64
SUB-138          RAINGAGE-1       SMH1885Q01       24.234600 25.000000 500.000000 0.500000 0.000000                 
; S2-2n-2
SUB-14           RAINGAGE-1       SMH3085C02       300.590300 25.000000 500.000000 0.500000 0.000000                 
; S3-3-65
SUB-140          RAINGAGE-1       SMH2085S01       42.916492 25.000000 500.000000 0.500000 0.000000                 
; S3-3-66
SUB-142          RAINGAGE-1       NID4316          25.385728 25.000000 500.000000 0.500000 0.000000                 
; S2-2-67
SUB-144          RAINGAGE-1       SMH0585X05       39.190674 25.000000 500.000000 0.500000 0.000000                 
; S3-2-68
SUB-146          RAINGAGE-1       SMH1885Z02       386.071696 25.000000 500.000000 0.500000 0.000000                 
; S2-15-69
SUB-148          RAINGAGE-1       SMH1885V04       186.931451 25.000000 500.000000 0.500000 0.000000                 
; S2-2n-70
SUB-150          RAINGAGE-1       NID1957          198.292109 25.000000 500.000000 0.500000 0.000000                 
; S3-4-71
SUB-152          RAINGAGE-1       SMH1985R01       23.261306 25.000000 500.000000 0.500000 0.000000                 
; S3-4-72
SUB-154          RAINGAGE-1       SMH1985R02       41.992069 25.000000 500.000000 0.500000 0.000000                 
; S3-3-73
SUB-156          RAINGAGE-1       SMH2085Z04       79.382742 25.000000 500.000000 0.500000 0.000000                 
; S1-4-74
SUB-158          RAINGAGE-1       SMH3694M05       42.766722 25.000000 500.000000 0.500000 0.000000                 
; S2-2n-3
SUB-16           RAINGAGE-1       SMH1985M04       198.075806 25.000000 500.000000 0.500000 0.000000                 
; S1-4-75
SUB-160          RAINGAGE-1       SMH3694M10       14.692670 25.000000 500.000000 0.500000 0.000000                 
; S1-8-76
SUB-162          RAINGAGE-1       SMH3594J05       125.292088 25.000000 500.000000 0.500000 0.000000                 
; S1-10-77
SUB-164          RAINGAGE-1       SMH3594K05       46.902127 25.000000 500.000000 0.500000 0.000000                 
; S1-6-78
SUB-166          RAINGAGE-1       SMH3694J05       64.540852 25.000000 500.000000 0.500000 0.000000                 
; S1-15-79
SUB-168          RAINGAGE-1       SMH3594V19       11.228846 25.000000 500.000000 0.500000 0.000000                 
; S1-15-80
SUB-170          RAINGAGE-1       SMH3594V10       83.222252 25.000000 500.000000 0.500000 0.000000                 
; S1-16-81
SUB-172          RAINGAGE-1       SMH3594U19       58.901776 25.000000 500.000000 0.500000 0.000000                 
; S1-9-82
SUB-174          RAINGAGE-1       SMH3594L02       43.734274 25.000000 500.000000 0.500000 0.000000                 
; S1-7-83
SUB-176          RAINGAGE-1       SMH3594L08       32.937059 25.000000 500.000000 0.500000 0.000000                 
; S1-18-84
SUB-178          RAINGAGE-1       SMH3694V03       144.926310 25.000000 500.000000 0.500000 0.000000                 
; S2-2n-92
SUB-194          RAINGAGE-1       SMH1985E03       52.578873 25.000000 500.000000 0.500000 0.000000                 
; S3-3-93
SUB-196          RAINGAGE-1       NID8195          31.238237 25.000000 500.000000 0.500000 0.000000                 
; S1-14-94
SUB-198          RAINGAGE-1       SMH0184A06       72.707138 25.000000 500.000000 0.500000 0.000000                 
; S1-19-95
SUB-200          RAINGAGE-1       SMH0384L01       73.703253 25.000000 500.000000 0.500000 0.000000                 
; S1-26-96
SUB-202          RAINGAGE-1       SMH1184G03       127.995796 25.000000 500.000000 0.500000 0.000000                 
; NG20-97
SUB-204          RAINGAGE-1       SMH1284J02       41.857371 25.000000 500.000000 0.500000 0.000000                 
; S1-20-98
SUB-206          RAINGAGE-1       SMH0184Z02       30.101347 25.000000 500.000000 0.500000 0.000000                 
; S1-20-99
SUB-208          RAINGAGE-1       SMH0184T04       96.147739 25.000000 500.000000 0.500000 0.000000                 
; NG20-100
SUB-210          RAINGAGE-1       SMH1284K03       36.208998 25.000000 500.000000 0.500000 0.000000                 
; S2-13-101
SUB-212          RAINGAGE-1       SMH1384K03       193.211003 25.000000 500.000000 0.500000 0.000000                 
; S2-10-102
SUB-214          RAINGAGE-1       SMH1384H08       35.313837 25.000000 500.000000 0.500000 0.000000                 
; S1-21-103
SUB-216          RAINGAGE-1       SMH0384J06       30.395719 25.000000 500.000000 0.500000 0.000000                 
; S2-8-104
SUB-218          RAINGAGE-1       SMH1384C06       42.360053 25.000000 500.000000 0.500000 0.000000                 
; S1-24-105
SUB-220          RAINGAGE-1       SMH0384R02       419.309208 25.000000 500.000000 0.500000 0.000000                 
; S2-12-106
SUB-222          RAINGAGE-1       SMH1885G04       52.942173 25.000000 500.000000 0.500000 0.000000                 
; S2-11-107
SUB-224          RAINGAGE-1       SMH1885G05       107.560359 25.000000 500.000000 0.500000 0.000000                 
; S3-2-108
SUB-226          RAINGAGE-1       SMH1985J02       84.799852 25.000000 500.000000 0.500000 0.000000                 
; N15-109
SUB-228          RAINGAGE-1       SMH0585E14       12.464429 25.000000 500.000000 0.500000 0.000000                 
; N14-110
SUB-230          RAINGAGE-1       SMH0585E14       31.461296 25.000000 500.000000 0.500000 0.000000                 
; NG17-111
SUB-232          RAINGAGE-1       SMH0685Q05       16.174545 25.000000 500.000000 0.500000 0.000000                 
; NG17-112
SUB-234          RAINGAGE-1       SMH0685Q05       19.562003 25.000000 500.000000 0.500000 0.000000                 
; S2-4-113
SUB-236          RAINGAGE-1       SMH0685R08       73.238427 25.000000 500.000000 0.500000 0.000000                 
; S2-2-114
SUB-238          RAINGAGE-1       SMH0585U07       18.442667 25.000000 500.000000 0.500000 0.000000                 
; N14-115
SUB-240          RAINGAGE-1       SMH0585P03       28.762594 25.000000 500.000000 0.500000 0.000000                 
; S3-4-116
SUB-242          RAINGAGE-1       SMH2085X09       41.680017 25.000000 500.000000 0.500000 0.000000                 
; S3-4-117
SUB-244          RAINGAGE-1       SMH2085X09       131.932085 25.000000 500.000000 0.500000 0.000000                 
; S1-13-118
SUB-246          RAINGAGE-1       SMH3494R09       47.649333 25.000000 500.000000 0.500000 0.000000                 
; S1-12-119
SUB-248          RAINGAGE-1       SMH3694K05       186.429522 25.000000 500.000000 0.500000 0.000000                 
; S1-14-120
SUB-250          RAINGAGE-1       SMH3694J06       27.837418 25.000000 500.000000 0.500000 0.000000                 
; S1-5-121
SUB-252          RAINGAGE-1       NID4519          8.385770 25.000000 500.000000 0.500000 0.000000                 
; S2-2n-126
SUB-262          RAINGAGE-1       NID465           33.965502 25.000000 500.000000 0.500000 0.000000                 
; S1-17-127
SUB-264          RAINGAGE-1       SMH0284C04       39.872351 25.000000 500.000000 0.500000 0.000000                 
; S1-25-128
SUB-266          RAINGAGE-1       SMH1284M08       71.627636 25.000000 500.000000 0.500000 0.000000                 
; S2-2n-129
SUB-268          RAINGAGE-1       NID8176          20.080225 25.000000 500.000000 0.500000 0.000000                 
; S1-20-131
SUB-272          RAINGAGE-1       SMH0184S11       31.363702 25.000000 500.000000 0.500000 0.000000                 
; S2-16-132
SUB-274          RAINGAGE-1       SMH1384Z14       240.485263 25.000000 500.000000 0.500000 0.000000                 
; S1-20-137
SUB-284          RAINGAGE-1       SMH0184L03       125.475255 25.000000 500.000000 0.500000 0.000000                 
; S1-17-138
SUB-286          RAINGAGE-1       SMH0284V04       101.797486 25.000000 500.000000 0.500000 0.000000                 
; S1-25-139
SUB-288          RAINGAGE-1       SMH1284N01       29.978409 25.000000 500.000000 0.500000 0.000000                 
; S2-2n-141
SUB-292          RAINGAGE-1       SMH3085D04       1349.424892 25.000000 500.000000 0.500000 0.000000                 
; NG19-144
SUB-298          RAINGAGE-1       SMH0785F11       29.264761 25.000000 500.000000 0.500000 0.000000                 
; S2-6-145
SUB-300          RAINGAGE-1       SMH0785H15       30.400793 25.000000 500.000000 0.500000 0.000000                 
; NG19-146
SUB-302          RAINGAGE-1       NID2212          2.998664 25.000000 500.000000 0.500000 0.000000                 
; S2-2n-147
SUB-304          RAINGAGE-1       SMH3085G01       101.151771 25.000000 500.000000 0.500000 0.000000                 
; S2-2n-148
SUB-306          RAINGAGE-1       SMH3085J01       57.289806 25.000000 500.000000 0.500000 0.000000                 
; S2-2n-149
SUB-308          RAINGAGE-1       SMH3085K04       30.964159 25.000000 500.000000 0.500000 0.000000                 
; NG14-151
SUB-312          RAINGAGE-1       SMH0685E09       35.305252 25.000000 500.000000 0.500000 0.000000                 
; NG18-152
SUB-314          RAINGAGE-1       SMH0785C13       87.839484 25.000000 500.000000 0.500000 0.000000                 
; S2-6-153
SUB-316          RAINGAGE-1       SMH0885D14       58.539891 25.000000 500.000000 0.500000 0.000000                 
; S2-6-154
SUB-318          RAINGAGE-1       SMH0885M17       3.901263 25.000000 500.000000 0.500000 0.000000                 
; S3-1-155
SUB-320          RAINGAGE-1       SMH0585G19       228.828724 25.000000 500.000000 0.500000 0.000000                 
; S2-7-156
SUB-322          RAINGAGE-1       SMH1885D13       182.272962 25.000000 500.000000 0.500000 0.000000                 
; S2-2n-157
SUB-324          RAINGAGE-1       SMH2985D02       131.949409 25.000000 500.000000 0.500000 0.000000                 
; NG17-158
SUB-326          RAINGAGE-1       SMH0685X06       6.272536 25.000000 500.000000 0.500000 0.000000                 
; S2-6-159
SUB-328          RAINGAGE-1       SMH0785S11       40.983237 25.000000 500.000000 0.500000 0.000000                 
; S2-6-160
SUB-330          RAINGAGE-1       SMH0785Z07       52.505591 25.000000 500.000000 0.500000 0.000000                 
; S3-4-161
SUB-332          RAINGAGE-1       SMH2085Y03       78.530876 25.000000 500.000000 0.500000 0.000000                 
; S2-2n-162
SUB-334          RAINGAGE-1       SMH3085Z10       372.523227 25.000000 500.000000 0.500000 0.000000                 
; S1-14-163
SUB-336          RAINGAGE-1       SMH0184H05       112.462783 25.000000 500.000000 0.500000 0.000000                 
; NG19-164
SUB-338          RAINGAGE-1       NID3933          137.266402 25.000000 500.000000 0.500000 0.000000                 
; S2-6-165
SUB-340          RAINGAGE-1       SMH0885W02       49.013109 25.000000 500.000000 0.500000 0.000000                 
; S2-12-166
SUB-342          RAINGAGE-1       SMH1885L06       71.639630 25.000000 500.000000 0.500000 0.000000                 
; S1-11-167
SUB-344          RAINGAGE-1       SMH3494T25       105.516184 25.000000 500.000000 0.500000 0.000000                 
; S1-11-168
SUB-346          RAINGAGE-1       SMH3494X05       132.164225 25.000000 500.000000 0.500000 0.000000                 
; S2-2n-179
SUB-368          RAINGAGE-1       NID8178          15.135442 25.000000 500.000000 0.500000 0.000000                 
; S2-2n-180
SUB-370          RAINGAGE-1       NID8287          130.395145 25.000000 500.000000 0.500000 0.000000                 
; S1-1-28
SUB-66           RAINGAGE-1       SMH3694H02       65.340191 25.000000 500.000000 0.500000 0.000000                 
; S1-1-29
SUB-68           RAINGAGE-1       SMH3694A06       46.974130 25.000000 500.000000 0.500000 0.000000                 
; S1-1-30
SUB-70           RAINGAGE-1       SMH2594Y07       95.136805 25.000000 500.000000 0.500000 0.000000                 
; S1-2-31
SUB-72           RAINGAGE-1       SMH3694C01       220.723823 25.000000 500.000000 0.500000 0.000000                 
; S1-3-32
SUB-74           RAINGAGE-1       NID4583          24.165667 25.000000 500.000000 0.500000 0.000000                 
; NG21-39
SUB-88           RAINGAGE-1       SMH1284J06       98.675197 25.000000 500.000000 0.500000 0.000000                 
; N8-438
SUB-882          RAINGAGE-1       SMH3295T04       23.646791 25.000000 500.000000 0.500000 0.000000                 
; N8-439
SUB-884          RAINGAGE-1       SMH3295L11       63.135613 25.000000 500.000000 0.500000 0.000000                 
; S2-1-441
SUB-888          RAINGAGE-1       SMH3295L02       143.489118 25.000000 500.000000 0.500000 0.000000                 
; N13-442
SUB-890          RAINGAGE-1       SMH3295P08       103.500009 25.000000 500.000000 0.500000 0.000000                 
; NG19-40
SUB-90           RAINGAGE-1       SMH0785C08       49.202776 25.000000 500.000000 0.500000 0.000000                 
; NG18-41
SUB-92           RAINGAGE-1       SMH0785E02       21.740379 25.000000 500.000000 0.500000 0.000000                 
; S2-8-42
SUB-94           RAINGAGE-1       SMH1384A02       94.480558 25.000000 500.000000 0.500000 0.000000                 
; S2-2n-43
SUB-96           RAINGAGE-1       SMH1985E02       47.410087 25.000000 500.000000 0.500000 0.000000                 
; S2-2n-44
SUB-98           RAINGAGE-1       SMH1985M02       46.001200 25.000000 500.000000 0.500000 0.000000                 

[SUBAREAS]
;;Subcatchment   N-Imperv   N-Perv     S-Imperv   S-Perv     PctZero    RouteTo    PctRouted 
;;-------------- ---------- ---------- ---------- ---------- ---------- ---------- ----------
SUB-10           0.100000   0.001000   0.050000   0.050000   25.000000  OUTLET    
SUB-100          0.100000   0.001000   0.050000   0.050000   25.000000  OUTLET    
SUB-102          0.100000   0.001000   0.050000   0.050000   25.000000  OUTLET    
SUB-104          0.100000   0.001000   0.050000   0.050000   25.000000  OUTLET    
SUB-106          0.100000   0.001000   0.050000   0.050000   25.000000  OUTLET    
SUB-108          0.100000   0.001000   0.050000   0.050000   25.000000  OUTLET    
SUB-110          0.100000   0.001000   0.050000   0.050000   25.000000  OUTLET    
SUB-116          0.100000   0.001000   0.050000   0.050000   25.000000  OUTLET    
SUB-118          0.100000   0.001000   0.050000   0.050000   25.000000  OUTLET    
SUB-12           0.100000   0.001000   0.050000   0.050000   25.000000  OUTLET    
SUB-120          0.100000   0.001000   0.050000   0.050000   25.000000  OUTLET    
SUB-122          0.100000   0.001000   0.050000   0.050000   25.000000  OUTLET    
SUB-124          0.100000   0.001000   0.050000   0.050000   25.000000  OUTLET    
SUB-130          0.100000   0.001000   0.050000   0.050000   25.000000  OUTLET    
SUB-132          0.100000   0.001000   0.050000   0.050000   25.000000  OUTLET    
SUB-134          0.100000   0.001000   0.050000   0.050000   25.000000  OUTLET    
SUB-136          0.100000   0.001000   0.050000   0.050000   25.000000  OUTLET    
SUB-138          0.100000   0.001000   0.050000   0.050000   25.000000  OUTLET    
SUB-14           0.100000   0.001000   0.050000   0.050000   25.000000  OUTLET    
SUB-140          0.100000   0.001000   0.050000   0.050000   25.000000  OUTLET    
SUB-142          0.100000   0.001000   0.050000   0.050000   25.000000  OUTLET    
SUB-144          0.100000   0.001000   0.050000   0.050000   25.000000  OUTLET    
SUB-146          0.100000   0.001000   0.050000   0.050000   25.000000  OUTLET    
SUB-148          0.100000   0.001000   0.050000   0.050000   25.000000  OUTLET    
SUB-150          0.100000   0.001000   0.050000   0.050000   25.000000  OUTLET    
SUB-152          0.100000   0.001000   0.050000   0.050000   25.000000  OUTLET    
SUB-154          0.100000   0.001000   0.050000   0.050000   25.000000  OUTLET    
SUB-156          0.100000   0.001000   0.050000   0.050000   25.000000  OUTLET    
SUB-158          0.100000   0.001000   0.050000   0.050000   25.000000  OUTLET    
SUB-16           0.100000   0.001000   0.050000   0.050000   25.000000  OUTLET    
SUB-160          0.100000   0.001000   0.050000   0.050000   25.000000  OUTLET    
SUB-162          0.100000   0.001000   0.050000   0.050000   25.000000  OUTLET    
SUB-164          0.100000   0.001000   0.050000   0.050000   25.000000  OUTLET    
SUB-166          0.100000   0.001000   0.050000   0.050000   25.000000  OUTLET    
SUB-168          0.100000   0.001000   0.050000   0.050000   25.000000  OUTLET    
SUB-170          0.100000   0.001000   0.050000   0.050000   25.000000  OUTLET    
SUB-172          0.100000   0.001000   0.050000   0.050000   25.000000  OUTLET    
SUB-174          0.100000   0.001000   0.050000   0.050000   25.000000  OUTLET    
SUB-176          0.100000   0.001000   0.050000   0.050000   25.000000  OUTLET    
SUB-178          0.100000   0.001000   0.050000   0.050000   25.000000  OUTLET    
SUB-194          0.100000   0.001000   0.050000   0.050000   25.000000  OUTLET    
SUB-196          0.100000   0.001000   0.050000   0.050000   25.000000  OUTLET    
SUB-198          0.100000   0.001000   0.050000   0.050000   25.000000  OUTLET    
SUB-200          0.100000   0.001000   0.050000   0.050000   25.000000  OUTLET    
SUB-202          0.100000   0.001000   0.050000   0.050000   25.000000  OUTLET    
SUB-204          0.100000   0.001000   0.050000   0.050000   25.000000  OUTLET    
SUB-206          0.100000   0.001000   0.050000   0.050000   25.000000  OUTLET    
SUB-208          0.100000   0.001000   0.050000   0.050000   25.000000  OUTLET    
SUB-210          0.100000   0.001000   0.050000   0.050000   25.000000  OUTLET    
SUB-212          0.100000   0.001000   0.050000   0.050000   25.000000  OUTLET    
SUB-214          0.100000   0.001000   0.050000   0.050000   25.000000  OUTLET    
SUB-216          0.100000   0.001000   0.050000   0.050000   25.000000  OUTLET    
SUB-218          0.100000   0.001000   0.050000   0.050000   25.000000  OUTLET    
SUB-220          0.100000   0.001000   0.050000   0.050000   25.000000  OUTLET    
SUB-222          0.100000   0.001000   0.050000   0.050000   25.000000  OUTLET    
SUB-224          0.100000   0.001000   0.050000   0.050000   25.000000  OUTLET    
SUB-226          0.100000   0.001000   0.050000   0.050000   25.000000  OUTLET    
SUB-228          0.100000   0.001000   0.050000   0.050000   25.000000  OUTLET    
SUB-230          0.100000   0.001000   0.050000   0.050000   25.000000  OUTLET    
SUB-232          0.100000   0.001000   0.050000   0.050000   25.000000  OUTLET    
SUB-234          0.100000   0.001000   0.050000   0.050000   25.000000  OUTLET    
SUB-236          0.100000   0.001000   0.050000   0.050000   25.000000  OUTLET    
SUB-238          0.100000   0.001000   0.050000   0.050000   25.000000  OUTLET    
SUB-240          0.100000   0.001000   0.050000   0.050000   25.000000  OUTLET    
SUB-242          0.100000   0.001000   0.050000   0.050000   25.000000  OUTLET    
SUB-244          0.100000   0.001000   0.050000   0.050000   25.000000  OUTLET    
SUB-246          0.100000   0.001000   0.050000   0.050000   25.000000  OUTLET    
SUB-248          0.100000   0.001000   0.050000   0.050000   25.000000  OUTLET    
SUB-250          0.100000   0.001000   0.050000   0.050000   25.000000  OUTLET    
SUB-252          0.100000   0.001000   0.050000   0.050000   25.000000  OUTLET    
SUB-262          0.100000   0.001000   0.050000   0.050000   25.000000  OUTLET    
SUB-264          0.100000   0.001000   0.050000   0.050000   25.000000  OUTLET    
SUB-266          0.100000   0.001000   0.050000   0.050000   25.000000  OUTLET    
SUB-268          0.100000   0.001000   0.050000   0.050000   25.000000  OUTLET    
SUB-272          0.100000   0.001000   0.050000   0.050000   25.000000  OUTLET    
SUB-274          0.100000   0.001000   0.050000   0.050000   25.000000  OUTLET    
SUB-284          0.100000   0.001000   0.050000   0.050000   25.000000  OUTLET    
SUB-286          0.100000   0.001000   0.050000   0.050000   25.000000  OUTLET    
SUB-288          0.100000   0.001000   0.050000   0.050000   25.000000  OUTLET    
SUB-292          0.100000   0.001000   0.050000   0.050000   25.000000  OUTLET    
SUB-298          0.100000   0.001000   0.050000   0.050000   25.000000  OUTLET    
SUB-300          0.100000   0.001000   0.050000   0.050000   25.000000  OUTLET    
SUB-302          0.100000   0.001000   0.050000   0.050000   25.000000  OUTLET    
SUB-304          0.100000   0.001000   0.050000   0.050000   25.000000  OUTLET    
SUB-306          0.100000   0.001000   0.050000   0.050000   25.000000  OUTLET    
SUB-308          0.100000   0.001000   0.050000   0.050000   25.000000  OUTLET    
SUB-312          0.100000   0.001000   0.050000   0.050000   25.000000  OUTLET    
SUB-314          0.100000   0.001000   0.050000   0.050000   25.000000  OUTLET    
SUB-316          0.100000   0.001000   0.050000   0.050000   25.000000  OUTLET    
SUB-318          0.100000   0.001000   0.050000   0.050000   25.000000  OUTLET    
SUB-320          0.100000   0.001000   0.050000   0.050000   25.000000  OUTLET    
SUB-322          0.100000   0.001000   0.050000   0.050000   25.000000  OUTLET    
SUB-324          0.100000   0.001000   0.050000   0.050000   25.000000  OUTLET    
SUB-326          0.100000   0.001000   0.050000   0.050000   25.000000  OUTLET    
SUB-328          0.100000   0.001000   0.050000   0.050000   25.000000  OUTLET    
SUB-330          0.100000   0.001000   0.050000   0.050000   25.000000  OUTLET    
SUB-332          0.100000   0.001000   0.050000   0.050000   25.000000  OUTLET    
SUB-334          0.100000   0.001000   0.050000   0.050000   25.000000  OUTLET    
SUB-336          0.100000   0.001000   0.050000   0.050000   25.000000  OUTLET    
SUB-338          0.100000   0.001000   0.050000   0.050000   25.000000  OUTLET    
SUB-340          0.100000   0.001000   0.050000   0.050000   25.000000  OUTLET    
SUB-342          0.100000   0.001000   0.050000   0.050000   25.000000  OUTLET    
SUB-344          0.100000   0.001000   0.050000   0.050000   25.000000  OUTLET    
SUB-346          0.100000   0.001000   0.050000   0.050000   25.000000  OUTLET    
SUB-368          0.100000   0.001000   0.050000   0.050000   25.000000  OUTLET    
SUB-370          0.100000   0.001000   0.050000   0.050000   25.000000  OUTLET    
SUB-66           0.100000   0.001000   0.050000   0.050000   25.000000  OUTLET    
SUB-68           0.100000   0.001000   0.050000   0.050000   25.000000  OUTLET    
SUB-70           0.100000   0.001000   0.050000   0.050000   25.000000  OUTLET    
SUB-72           0.100000   0.001000   0.050000   0.050000   25.000000  OUTLET    
SUB-74           0.100000   0.001000   0.050000   0.050000   25.000000  OUTLET    
SUB-88           0.100000   0.001000   0.050000   0.050000   25.000000  OUTLET    
SUB-882          0.100000   0.001000   0.050000   0.050000   25.000000  OUTLET    
SUB-884          0.100000   0.001000   0.050000   0.050000   25.000000  OUTLET    
SUB-888          0.100000   0.001000   0.050000   0.050000   25.000000  OUTLET    
SUB-890          0.100000   0.001000   0.050000   0.050000   25.000000  OUTLET    
SUB-90           0.100000   0.001000   0.050000   0.050000   25.000000  OUTLET    
SUB-92           0.100000   0.001000   0.050000   0.050000   25.000000  OUTLET    
SUB-94           0.100000   0.001000   0.050000   0.050000   25.000000  OUTLET    
SUB-96           0.100000   0.001000   0.050000   0.050000   25.000000  OUTLET    
SUB-98           0.100000   0.001000   0.050000   0.050000   25.000000  OUTLET    

[INFILTRATION]
;;Subcatchment   MaxRate    MinRate    Decay      DryTime    MaxInfil  
;;-------------- ---------- ---------- ---------- ---------- ----------
SUB-10           3.0        0.5        4          7          0         
SUB-100          3.0        0.5        4          7          0         
SUB-102          3.0        0.5        4          7          0         
SUB-104          3.0        0.5        4          7          0         
SUB-106          3.0        0.5        4          7          0         
SUB-108          3.0        0.5        4          7          0         
SUB-110          3.0        0.5        4          7          0         
SUB-116          3.0        0.5        4          7          0         
SUB-118          3.0        0.5        4          7          0         
SUB-12           3.0        0.5        4          7          0         
SUB-120          3.0        0.5        4          7          0         
SUB-122          3.0        0.5        4          7          0         
SUB-124          3.0        0.5        4          7          0         
SUB-130          3.0        0.5        4          7          0         
SUB-132          3.0        0.5        4          7          0         
SUB-134          3.0        0.5        4          7          0         
SUB-136          3.0        0.5        4          7          0         
SUB-138          3.0        0.5        4          7          0         
SUB-14           3.0        0.5        4          7          0         
SUB-140          3.0        0.5        4          7          0         
SUB-142          3.0        0.5        4          7          0         
SUB-144          3.0        0.5        4          7          0         
SUB-146          3.0        0.5        4          7          0         
SUB-148          3.0        0.5        4          7          0         
SUB-150          3.0        0.5        4          7          0         
SUB-152          3.0        0.5        4          7          0         
SUB-154          3.0        0.5        4          7          0         
SUB-156          3.0        0.5        4          7          0         
SUB-158          3.0        0.5        4          7          0         
SUB-16           3.0        0.5        4          7          0         
SUB-160          3.0        0.5        4          7          0         
SUB-162          3.0        0.5        4          7          0         
SUB-164          3.0        0.5        4          7          0         
SUB-166          3.0        0.5        4          7          0         