[TITLE]
;;Project Title/Notes

[OPTIONS]
;;Option             Value
FLOW_UNITS           MGD
INFILTRATION         HORTON
FLOW_ROUTING         DYNWAVE
LINK_OFFSETS         DEPTH
MIN_SLOPE            0
ALLOW_PONDING        NO
SKIP_STEADY_STATE    NO

START_DATE           03/06/2008
START_TIME           00:00:00
REPORT_START_DATE    03/06/2008
REPORT_START_TIME    00:00:00
END_DATE             03/07/2008
END_TIME             00:00:00
SWEEP_START          01/01
SWEEP_END            12/31
DRY_DAYS             0
REPORT_STEP          00:05:00
WET_STEP             00:05:00
DRY_STEP             01:00:00
ROUTING_STEP         0:00:05 

INERTIAL_DAMPING     PARTIAL
NORMAL_FLOW_LIMITED  BOTH
FORCE_MAIN_EQUATION  H-W
VARIABLE_STEP        0.75
LENGTHENING_STEP     0
MIN_SURFAREA         0
MAX_TRIALS           0
HEAD_TOLERANCE       0
SYS_FLOW_TOL         5
LAT_FLOW_TOL         5
MINIMUM_STEP         0.5
THREADS              1

[EVAPORATION]
;;Data Source    Parameters
;;-------------- ----------------
CONSTANT         0.0
DRY_ONLY         NO

[RAINGAGES]
;;Name           Format    Interval SCF      Source    
;;-------------- --------- ------ ------ ----------
5-yr24-hr        INTENSITY 0:15     1.0      TIMESERIES 5-yr24-hr       

[SUBCATCHMENTS]
;;Name           Rain Gage        Outlet           Area     %Imperv  Width    %Slope   CurbLen  SnowPack        
;;-------------- ---------------- ---------------- -------- -------- -------- -------- -------- ----------------
; Name Raingage Outlet Area %Imperv Width Slope Clength
001051           5-yr24-hr        0010050125       1.819821 76.567657 13772.000000 1.700000 0.000000                 
001052           5-yr24-hr        0010050056       0.540001 69.790000 5917.000000 1.700000 0.000000                 
00110            5-yr24-hr        0010030072       1.300002 63.820000 4005.000000 5.700000 0.000000                 
00114            5-yr24-hr        0010140020       0.600001 83.050000 4457.000000 6.700000 0.000000                 
00115            5-yr24-hr        0010020014       2.259777 64.596460 5590.000000 6.700000 0.000000                 
001251           5-yr24-hr        0010060168       4.330007 60.610000 6396.000000 2.800000 0.000000                 
001252           5-yr24-hr        0010060083       2.590004 60.610000 2691.000000 2.800000 0.000000                 
00130            5-yr24-hr        0010120032       4.690007 71.620000 4543.000000 4.500000 0.000000                 
001311           5-yr24-hr        0010130036       5.120008 78.520000 5342.000000 4.500000 0.000000                 
001312           5-yr24-hr        0010130010       2.810004 92.500000 2938.000000 4.500000 0.000000                 
00134            5-yr24-hr        0010080082       8.999114 56.675668 6691.000000 5.500000 0.000000                 
00135            5-yr24-hr        0060000035       2.730004 55.840000 3303.000000 5.500000 0.000000                 
00136            5-yr24-hr        0010070017       6.420010 54.130000 7181.000000 5.500000 0.000000                 
001371           5-yr24-hr        0010100003       5.849424 65.436544 11338.000000 5.500000 0.000000                 
001372           5-yr24-hr        0010090014       2.119791 65.436544 3688.000000 5.500000 0.000000                 
00140            5-yr24-hr        0010140281       0.599941 82.328233 2601.000000 1.300000 0.000000                 
00141            5-yr24-hr        0010140087       0.729928 79.957996 2591.000000 1.300000 0.000000                 
002051           5-yr24-hr        0020030016       0.839917 55.445545 5018.000000 6.400000 0.000000                 
002052           5-yr24-hr        0020030034       0.379963 56.225623 8341.000000 6.400000 0.000000                 
00210            5-yr24-hr        0020050059       0.690001 64.420000 2885.000000 1.800000 0.000000                 
00215            5-yr24-hr        0020010019       0.700001 79.480000 7025.000000 6.100000 0.000000                 
00305            5-yr24-hr        0500010066       1.780003 58.300000 4085.000000 1.300000 0.000000                 
00309            5-yr24-hr        0030080060       0.400001 79.990000 1459.000000 3.800000 0.000000                 
00310            5-yr24-hr        0030100023       1.500002 67.630000 3929.000000 3.800000 0.000000                 
00311            5-yr24-hr        0030030010       3.870006 61.090000 7372.000000 3.800000 0.000000                 
003151           5-yr24-hr        0030110053       0.519949 52.895290 4514.000000 3.000000 0.000000                 
003152           5-yr24-hr        0030010037       0.250000 59.950000 3966.000000 3.000000 0.000000                 
005051           5-yr24-hr        0050060069       0.019998 72.127213 10014.000000 0.900000 0.000000                 
005052           5-yr24-hr        0180010008       0.020000 64.690000 2965.000000 0.900000 0.000000                 
00509            5-yr24-hr        0050020067       0.750001 72.880000 4946.000000 0.900000 0.000000                 
00510            5-yr24-hr        0050050035       1.959807 74.887489 11520.000000 0.900000 0.000000                 
00515            5-yr24-hr        0050030151       2.129790 69.546955 3295.000000 2.000000 0.000000                 
11504            5-yr24-hr        1150010119       1.089893 63.546355 2863.000000 1.200000 0.000000                 
11505            5-yr24-hr        1150020074       2.199783 74.797480 6766.000000 1.200000 0.000000                 
11510            5-yr24-hr        1150010010       0.350001 80.980000 953.000000 1.600000 0.000000                 

[SUBAREAS]
;;Subcatchment   N-Imperv   N-Perv     S-Imperv   S-Perv     PctZero    RouteTo    PctRouted 
;;-------------- ---------- ---------- ---------- ---------- ---------- ---------- ----------
001051           0.020000   0.268000   0.023000   0.046000   0.000000   OUTLET    
001052           0.020000   0.268000   0.023000   0.046000   0.000000   OUTLET    
00110            0.019000   0.249000   0.034000   0.034000   0.000000   OUTLET    
00114            0.020000   0.268000   0.038000   0.039000   0.000000   OUTLET    
00115            0.020000   0.268000   0.035000   0.039000   0.000000   OUTLET    
001251           0.020000   0.256000   0.033000   0.039000   0.000000   OUTLET    
001252           0.020000   0.256000   0.033000   0.039000   0.000000   OUTLET    
00130            0.020000   0.265000   0.037000   0.039000   0.000000   OUTLET    
001311           0.020000   0.265000   0.037000   0.039000   0.000000   OUTLET    
001312           0.020000   0.265000   0.038000   0.039000   0.000000   OUTLET    
00134            0.020000   0.245000   0.030000   0.037000   0.000000   OUTLET    
00135            0.020000   0.245000   0.030000   0.037000   0.000000   OUTLET    
00136            0.020000   0.245000   0.030000   0.037000   0.000000   OUTLET    
001371           0.020000   0.245000   0.033000   0.037000   0.000000   OUTLET    
001372           0.020000   0.245000   0.033000   0.037000   0.000000   OUTLET    
00140            0.020000   0.291000   0.042000   0.043000   0.000000   OUTLET    
00141            0.020000   0.291000   0.042000   0.043000   0.000000   OUTLET    
002051           0.020000   0.247000   0.030000   0.037000   0.000000   OUTLET    
002052           0.020000   0.247000   0.030000   0.037000   0.000000   OUTLET    
00210            0.020000   0.264000   0.035000   0.040000   0.000000   OUTLET    
00215            0.022000   0.270000   0.037000   0.038000   0.000000   OUTLET    
00305            0.020000   0.259000   0.033000   0.040000   0.000000   OUTLET    
00309            0.020000   0.260000   0.039000   0.040000   0.000000   OUTLET    
00310            0.020000   0.260000   0.036000   0.040000   0.000000   OUTLET    
00311            0.020000   0.260000   0.034000   0.040000   0.000000   OUTLET    
003151           0.020000   0.246000   0.029000   0.037000   0.000000   OUTLET    
003152           0.020000   0.246000   0.031000   0.037000   0.000000   OUTLET    
005051           0.020000   0.272000   0.039000   0.041000   0.000000   OUTLET    
005052           0.020000   0.272000   0.038000   0.041000   0.000000   OUTLET    
00509            0.020000   0.255000   0.034000   0.037000   0.000000   OUTLET    
00510            0.020000   0.255000   0.035000   0.037000   0.000000   OUTLET    
00515            0.020000   0.271000   0.037000   0.041000   0.000000   OUTLET    
11504            0.020000   0.277000   0.064000   0.024000   0.000000   OUTLET    
11505            0.020000   0.277000   0.066000   0.024000   0.000000   OUTLET    
11510            0.020000   0.296000   0.043000   0.044000   0.000000   OUTLET    

[INFILTRATION]
;;Subcatchment   MaxRate    MinRate    Decay      DryTime    MaxInfil  
;;-------------- ---------- ---------- ---------- ---------- ----------
001051           12.000000  1.000000   1.92       0.000000   0.000000  
001052           12.000000  1.000000   1.92       0.000000   0.000000  
00110            10.500000  0.800000   1.92       0.000000   0.000000  
00114            12.000000  1.000000   1.92       0.000000   0.000000  
00115            9.100000   0.700000   1.92       0.000000   0.000000  
001251           12.000000  1.000000   1.92       0.000000   0.000000  
001252           12.000000  1.000000   1.92       0.000000   0.000000  
00130            11.600000  1.000000   1.92       0.000000   0.000000  
001311           11.600000  1.000000   1.92       0.000000   0.000000  
001312           11.600000  1.000000   1.92       0.000000   0.000000  
00134            11.800000  1.000000   1.92       0.000000   0.000000  
00135            12.000000  1.000000   1.92       0.000000   0.000000  
00136            11.600000  1.000000   1.92       0.000000   0.000000  
001371           11.800000  1.000000   1.92       0.000000   0.000000  
001372           11.800000  1.000000   1.92       0.000000   0.000000  
00140            12.000000  1.000000   1.92       0.000000   0.000000  
00141            12.000000  1.000000   1.92       0.000000   0.000000  
002051           9.000000   0.700000   1.92       0.000000   0.000000  
002052           9.000000   0.700000   1.92       0.000000   0.000000  
00210            12.000000  1.000000   1.92       0.000000   0.000000  
00215            11.600000  1.000000   1.92       0.000000   0.000000  
00305            10.300000  0.800000   1.92       0.000000   0.000000  
00309            10.900000  0.900000   1.92       0.000000   0.000000  
00310            10.700000  0.900000   1.92       0.000000   0.000000  
00311            8.300000   0.600000   1.92       0.000000   0.000000  
003151           12.000000  1.000000   1.92       0.000000   0.000000  
003152           12.000000  1.000000   1.92       0.000000   0.000000  
005051           10.200000  0.800000   1.92       0.000000   0.000000  
005052           10.200000  0.800000   1.92       0.000000   0.000000  
00509            10.700000  0.900000   1.92       0.000000   0.000000  
00510            9.900000   0.800000   1.92       0.000000   0.000000  
00515            12.000000  1.000000   1.92       0.000000   0.000000  
11504            12.000000  1.000000   1.92       0.000000   0.000000  
11505            12.000000  1.000000   1.92       0.000000   0.000000  
11510            12.000000  1.000000   1.92       0.000000   0.000000  

[JUNCTIONS]
;;Name           Elevation  MaxDepth   InitDepth  SurDepth   Aponded   
;;-------------- ---------- ---------- ---------- ---------- ----------
0010010002       60.730000  13.660000  0.000000   0.000000   0.000000  
0010010003       60.890000  13.740000  0.000000   0.000000   0.000000  
0010010004       61.020000  13.200000  0.000000   0.000000   0.000000  
0010010005       61.210000  12.890000  0.000000   0.000000   0.000000  
0010010006       61.770000  12.230000  0.000000   0.000000   0.000000  
0010010007       62.210000  11.710000  0.000000   0.000000   0.000000  
0010010008       60.520000  13.480000  0.000000   0.000000   0.000000  
0010010009       60.570000  13.550000  0.000000   0.000000   0.000000  
0010010010       68.420000  5.580000   0.000000   0.000000   0.000000  
0010010011       68.440000  5.760000   0.000000   0.000000   0.000000  
0010010012       69.910000  9.090000   0.000000   0.000000   0.000000  
0010010013       70.030000  9.970000   0.000000   0.000000   0.000000  
0010010014       70.980000  4.790000   0.000000   0.000000   0.000000  
0010010015       68.490000  4.950000   0.000000   0.000000   0.000000  
0010010016       68.600000  5.900000   0.000000   0.000000   0.000000  
0010010017       68.720000  4.560000   0.000000   0.000000   0.000000  
0010010018       70.300000  4.640000   0.000000   0.000000   0.000000  
0010010019       70.720000  5.280000   0.000000   0.000000   0.000000  
0010010020       70.770000  4.580000   0.000000   0.000000   0.000000  
0010010021       73.810000  4.680000   0.000000   0.000000   0.000000  
0010010022       62.900000  11.700000  0.000000   0.000000   0.000000  
0010010023       63.110000  11.690000  0.000000   0.000000   0.000000  
0010010046       63.140000  11.550000  0.000000   0.000000   0.000000  
0010010047       69.400000  5.410000   0.000000   0.000000   0.000000  
0010010048       70.820000  4.290000   0.000000   0.000000   0.000000  
0010010049       71.720000  4.000000   0.000000   0.000000   0.000000  
0010010050       71.910000  3.980000   0.000000   0.000000   0.000000  
0010010051       72.430000  5.120000   0.000000   0.000000   0.000000  
0010010052       72.870000  6.060000   0.000000   0.000000   0.000000  
0010010054       73.120000  5.640000   0.000000   0.000000   0.000000  
0010010055       66.010000  9.330000   0.000000   0.000000   0.000000  
0010010057       68.020000  8.880000   0.000000   0.000000   0.000000  
0010010059       68.580000  10.500000  0.000000   0.000000   0.000000  
0010010060       69.260000  7.790000   0.000000   0.000000   0.000000  
0010010065       74.000000  6.000000   0.000000   0.000000   0.000000  
0010010066       77.000000  7.090000   0.000000   0.000000   0.000000  
0010010067       77.700000  8.000000   0.000000   0.000000   0.000000  
0010010068       80.580000  6.640000   0.000000   0.000000   0.000000  
0010010069       82.400000  6.790000   0.000000   0.000000   0.000000  
0010010070       82.670000  8.060000   0.000000   0.000000   0.000000  
0010010071       82.980000  8.150000   0.000000   0.000000   0.000000  
0010010072       83.130000  9.710000   0.000000   0.000000   0.000000  
0010010073       83.280000  10.430000  0.000000   0.000000   0.000000  
0010010074       83.600000  10.370000  0.000000   0.000000   0.000000  
0010010075       83.880000  9.510000   0.000000   0.000000   0.000000  
0010010076       84.300000  10.100000  0.000000   0.000000   0.000000  
0010010077       84.250000  11.660000  0.000000   0.000000   0.000000  
0010010078       84.900000  11.960000  0.000000   0.000000   0.000000  
0010010079       88.580000  7.750000   0.000000   0.000000   0.000000  
0010010080       88.800000  7.330000   0.000000   0.000000   0.000000  
0010010084       85.020000  11.370000  0.000000   0.000000   0.000000  
0010010085       85.500000  9.200000   0.000000   0.000000   0.000000  
0010010086       85.620000  6.060000   0.000000   0.000000   0.000000  
0010010087       86.230000  5.540000   0.000000   0.000000   0.000000  
0010010088       87.200000  5.600000   0.000000   0.000000   0.000000  
0010010089       87.600000  5.600000   0.000000   0.000000   0.000000  
0010010090       92.900000  5.600000   0.000000   0.000000   0.000000  
0010010104       89.010000  4.810000   0.000000   0.000000   0.000000  
0010010109       90.900000  4.340000   0.000000   0.000000   0.000000  
0010010110       60.560000  13.630000  0.000000   0.000000   0.000000  
0010010111       60.650000  13.770000  0.000000   0.000000   0.000000  
0010010112       60.890000  11.350000  0.000000   0.000000   0.000000  
0010010113       61.640000  12.990000  0.000000   0.000000   0.000000  
0010010114       63.730000  11.700000  0.000000   0.000000   0.000000  
0010010115       62.720000  11.490000  0.000000   0.000000   0.000000  
0010010116       64.160000  10.020000  0.000000   0.000000   0.000000  
0010010117       66.040000  10.440000  0.000000   0.000000   0.000000  
0010010118       67.370000  13.260000  0.000000   0.000000   0.000000  
0010010119       68.280000  12.660000  0.000000   0.000000   0.000000  
0010010120       69.350000  15.170000  0.000000   0.000000   0.000000  
0010010121       71.200000  10.720000  0.000000   0.000000   0.000000  
0010010144       74.430000  2.470000   0.000000   0.000000   0.000000  
0010010145       76.570000  7.770000   0.000000   0.000000   0.000000  
0010010150       76.660000  7.810000   0.000000   0.000000   0.000000  
0010010151       77.910000  3.780000   0.000000   0.000000   0.000000  
0010010153       79.230000  6.540000   0.000000   0.000000   0.000000  
0010010154       85.920000  6.360000   0.000000   0.000000   0.000000  
0010010155       80.190000  4.790000   0.000000   0.000000   0.000000  
0010010159       80.200000  2.960000   0.000000   0.000000   0.000000  
0010010160       80.800000  4.360000   0.000000   0.000000   0.000000  
0010010161       81.220000  5.360000   0.000000   0.000000   0.000000  
0010010162       81.280000  5.840000   0.000000   0.000000   0.000000  
0010010164       81.900000  5.600000   0.000000   0.000000   0.000000  
0010010166       88.270000  5.650000   0.000000   0.000000   0.000000  
0010010174       76.850000  7.740000   0.000000   0.000000   0.000000  
0010010175       81.090000  6.190000   0.000000   0.000000   0.000000  
0010010176       81.640000  6.380000   0.000000   0.000000   0.000000  
0010010177       86.720000  2.900000   0.000000   0.000000   0.000000  
0010010184       86.750000  4.450000   0.000000   0.000000   0.000000  
0010010185       87.410000  5.090000   0.000000   0.000000   0.000000  
0010010186       88.400000  6.320000   0.000000   0.000000   0.000000  
0010010187       89.010000  6.230000   0.000000   0.000000   0.000000  
0010010188       89.600000  6.780000   0.000000   0.000000   0.000000  
0010010189       73.810000  14.160000  0.000000   0.000000   0.000000  
0010010190       76.360000  11.010000  0.000000   0.000000   0.000000  
0010010191       78.120000  9.080000   0.000000   0.000000   0.000000  
0010010192       80.070000  9.700000   0.000000   0.000000   0.000000  
0010010193       81.640000  8.470000   0.000000   0.000000   0.000000  
0010010194       82.180000  7.970000   0.000000   0.000000   0.000000  
0010010195       82.980000  6.620000   0.000000   0.000000   0.000000  
0010010196       84.730000  7.700000   0.000000   0.000000   0.000000  
0010010197       86.240000  8.560000   0.000000   0.000000   0.000000  
0010010198       86.760000  8.660000   0.000000   0.000000   0.000000  
0010010199       87.210000  9.150000   0.000000   0.000000   0.000000  
0010010200       87.320000  9.280000   0.000000   0.000000   0.000000  
0010010201       87.650000  9.780000   0.000000   0.000000   0.000000  
0010010202       87.710000  9.090000   0.000000   0.000000   0.000000  
0010010203       88.160000  8.640000   0.000000   0.000000   0.000000  
0010010204       89.690000  8.490000   0.000000   0.000000   0.000000  
0010010205       90.760000  8.200000   0.000000   0.000000   0.000000  
0010010206       91.200000  8.020000   0.000000   0.000000   0.000000  
0010010207       91.360000  8.040000   0.000000   0.000000   0.000000  
0010010208       91.780000  8.220000   0.000000   0.000000   0.000000  
0010010219       93.900000  6.300000   0.000000   0.000000   0.000000  
0010010221       99.080000  5.270000   0.000000   0.000000   0.000000  
0010010226       101.340000 4.540000   0.000000   0.000000   0.000000  
0010010228       103.000000 2.120000   0.000000   0.000000   0.000000  
0010010229       104.200000 1.800000   0.000000   0.000000   0.000000  
0010010231       93.060000  3.910000   0.000000   0.000000   0.000000  
0010010233       98.480000  5.230000   0.000000   0.000000   0.000000  
0010010234       98.480000  5.390000   0.000000   0.000000   0.000000  
0010010235       98.640000  6.400000   0.000000   0.000000   0.000000  
0010010236       99.170000  4.890000   0.000000   0.000000   0.000000  
0010010237       98.710000  5.630000   0.000000   0.000000   0.000000  
0010010238       100.400000 5.330000   0.000000   0.000000   0.000000  
0010010239       100.910000 5.600000   0.000000   0.000000   0.000000  
0010010243       102.340000 5.810000   0.000000   0.000000   0.000000  
0010010245       104.890000 4.540000   0.000000   0.000000   0.000000  
0010010246       107.440000 3.260000   0.000000   0.000000   0.000000  
0010010247       70.420000  4.540000   0.000000   0.000000   0.000000  
0010010251       71.470000  4.990000   0.000000   0.000000   0.000000  
0010010254       73.160000  4.880000   0.000000   0.000000   0.000000  
0010010256       75.340000  6.560000   0.000000   0.000000   0.000000  
0010010259       79.350000  6.560000   0.000000   0.000000   0.000000  
0010010260       83.000000  4.700000   0.000000   0.000000   0.000000  
0010020001       81.340000  6.140000   0.000000   0.000000   0.000000  
0010020002       81.800000  8.200000   0.000000   0.000000   0.000000  
0010020005       82.330000  9.970000   0.000000   0.000000   0.000000  
0010020012       82.490000  9.910000   0.000000   0.000000   0.000000  
0010020013       83.190000  10.410000  0.000000   0.000000   0.000000  
0010020015       85.410000  7.490000   0.000000   0.000000   0.000000  
0010020054       86.350000  5.550000   0.000000   0.000000   0.000000  
0010020065       87.160000  4.180000   0.000000   0.000000   0.000000  
0010020066       88.450000  3.430000   0.000000   0.000000   0.000000  
0010020090       94.700000  3.060000   0.000000   0.000000   0.000000  
0010020094       101.140000 3.670000   0.000000   0.000000   0.000000  
0010020268       90.820000  3.480000   0.000000   0.000000   0.000000  
0010030007       71.000000  4.500000   0.000000   0.000000   0.000000  
0010030008       71.700000  4.300000   0.000000   0.000000   0.000000  
0010030011       72.500000  5.500000   0.000000   0.000000   0.000000  
0010030012       73.500000  6.500000   0.000000   0.000000   0.000000  
0010030013       74.500000  7.500000   0.000000   0.000000   0.000000  
0010030017       75.270000  7.730000   0.000000   0.000000   0.000000  
0010030018       75.630000  7.420000   0.000000   0.000000   0.000000  
0010030019       77.110000  4.800000   0.000000   0.000000   0.000000  
0010030036       77.970000  3.750000   0.000000   0.000000   0.000000  
0010030067       76.800000  6.360000   0.000000   0.000000   0.000000  
0010030071       77.700000  6.300000   0.000000   0.000000   0.000000  
0010040001       72.320000  6.780000   0.000000   0.000000   0.000000  
0010040002       73.020000  7.980000   0.000000   0.000000   0.000000  
0010040003       73.760000  8.710000   0.000000   0.000000   0.000000  
0010040004       79.000000  8.700000   0.000000   0.000000   0.000000  
0010040005       82.400000  8.720000   0.000000   0.000000   0.000000  
0010040006       73.820000  4.670000   0.000000   0.000000   0.000000  
0010040007       74.030000  7.050000   0.000000   0.000000   0.000000  
0010040008       73.630000  8.790000   0.000000   0.000000   0.000000  
0010040009       73.980000  7.800000   0.000000   0.000000   0.000000  
0010040010       74.830000  3.510000   0.000000   0.000000   0.000000  
0010040011       75.040000  3.360000   0.000000   0.000000   0.000000  
0010040012       74.710000  5.430000   0.000000   0.000000   0.000000  
0010040014       75.520000  6.770000   0.000000   0.000000   0.000000  
0010040016       75.940000  7.140000   0.000000   0.000000   0.000000  
0010040017       80.700000  8.710000   0.000000   0.000000   0.000000  
0010040018       81.900000  9.730000   0.000000   0.000000   0.000000  
0010040019       64.700000  14.900000  0.000000   0.000000   0.000000  
0010040020       67.280000  18.110000  0.000000   0.000000   0.000000  
0010040021       68.220000  15.080000  0.000000   0.000000   0.000000  
0010040022       68.900000  11.770000  0.000000   0.000000   0.000000  
0010040023       69.970000  7.930000   0.000000   0.000000   0.000000  
0010040024       70.550000  11.630000  0.000000   0.000000   0.000000  
0010040031       71.300000  10.850000  0.000000   0.000000   0.000000  
0010040032       70.660000  10.520000  0.000000   0.000000   0.000000  
0010040034       72.760000  7.240000   0.000000   0.000000   0.000000  
0010040035       75.010000  5.190000   0.000000   0.000000   0.000000  
0010040036       77.400000  6.600000   0.000000   0.000000   0.000000  
0010040039       79.170000  4.900000   0.000000   0.000000   0.000000  
0010040040       81.650000  8.770000   0.000000   0.000000   0.000000  
0010040041       84.170000  9.350000   0.000000   0.000000   0.000000  
0010040044       85.430000  12.110000  0.000000   0.000000   0.000000  
0010040045       87.500000  5.510000   0.000000   0.000000   0.000000  
0010040046       88.820000  11.360000  0.000000   0.000000   0.000000  
0010040047       90.120000  11.060000  0.000000   0.000000   0.000000  
0010040050       90.630000  10.490000  0.000000   0.000000   0.000000  
0010040052       90.670000  10.540000  0.000000   0.000000   0.000000  
0010040053       91.400000  11.180000  0.000000   0.000000   0.000000  
0010040058       92.050000  7.230000   0.000000   0.000000   0.000000  
0010040061       92.810000  5.690000   0.000000   0.000000   0.000000  
0010040064       93.530000  6.120000   0.000000   0.000000   0.000000  
0010040067       94.100000  8.600000   0.000000   0.000000   0.000000  
001004006A       73.810000  4.680000   0.000000   0.000000   0.000000  
0010040070       94.080000  8.300000   0.000000   0.000000   0.000000  
0010040072       95.240000  6.360000   0.000000   0.000000   0.000000  
0010040078       95.810000  6.470000   0.000000   0.000000   0.000000  
0010040086       82.180000  6.620000   0.000000   0.000000   0.000000  
0010040087       87.460000  9.080000   0.000000   0.000000   0.000000  
0010040088       88.700000  8.100000   0.000000   0.000000   0.000000  
0010040089       89.140000  12.220000  0.000000   0.000000   0.000000  
0010040090       89.440000  13.000000  0.000000   0.000000   0.000000  
0010040099       89.950000  11.320000  0.000000   0.000000   0.000000  
0010040105       90.510000  11.310000  0.000000   0.000000   0.000000  
0010040114       90.800000  12.460000  0.000000   0.000000   0.000000  
0010040115       91.410000  12.930000  0.000000   0.000000   0.000000  
0010040116       91.720000  10.020000  0.000000   0.000000   0.000000  
0010040118       91.760000  9.600000   0.000000   0.000000   0.000000  
0010040119       92.010000  7.730000   0.000000   0.000000   0.000000  
0010040125       92.190000  6.440000   0.000000   0.000000   0.000000  
0010040131       92.300000  6.930000   0.000000   0.000000   0.000000  
0010040132       92.350000  7.850000   0.000000   0.000000   0.000000  
0010040135       92.430000  7.240000   0.000000   0.000000   0.000000  
0010040142       93.030000  7.670000   0.000000   0.000000   0.000000  
0010040143       95.250000  6.630000   0.000000   0.000000   0.000000  
0010040144       95.960000  6.390000   0.000000   0.000000   0.000000  
0010040161       93.090000  7.410000   0.000000   0.000000   0.000000  
0010040162       93.890000  7.910000   0.000000   0.000000   0.000000  
0010040164       94.880000  7.520000   0.000000   0.000000   0.000000  
0010040166       95.580000  7.280000   0.000000   0.000000   0.000000  
001004016A       79.710000  7.860000   0.000000   0.000000   0.000000  
001004016B       79.120000  7.360000   0.000000   0.000000   0.000000  
0010040188       90.660000  12.060000  0.000000   0.000000   0.000000  
0010040189       91.310000  12.450000  0.000000   0.000000   0.000000  
0010050001       96.700000  6.600000   0.000000   0.000000   0.000000  
0010050007       96.830000  6.460000   0.000000   0.000000   0.000000  
0010050014       97.270000  6.300000   0.000000   0.000000   0.000000  
0010050019       97.280000  6.120000   0.000000   0.000000   0.000000  
0010050022       98.540000  5.720000   0.000000   0.000000   0.000000  
0010050076       96.530000  8.520000   0.000000   0.000000   0.000000  
0010050089       97.230000  7.500000   0.000000   0.000000   0.000000  
0010050090       97.570000  7.100000   0.000000   0.000000   0.000000  
0010050091       97.570000  7.140000   0.000000   0.000000   0.000000  
0010050096       98.270000  7.020000   0.000000   0.000000   0.000000  
0010050107       98.320000  7.100000   0.000000   0.000000   0.000000  
0010050108       101.360000 6.390000   0.000000   0.000000   0.000000  
0010050121       101.600000 5.720000   0.000000   0.000000   0.000000  
0010060001       84.240000  11.720000  0.000000   0.000000   0.000000  
0010060002       86.050000  8.420000   0.000000   0.000000   0.000000  
0010060003       86.400000  6.400000   0.000000   0.000000   0.000000  
0010060004       86.900000  4.480000   0.000000   0.000000   0.000000  
0010060014       87.110000  4.050000   0.000000   0.000000   0.000000  
0010060015       88.500000  5.230000   0.000000   0.000000   0.000000  
0010060024       92.690000  5.450000   0.000000   0.000000   0.000000  
0010060025       95.690000  5.210000   0.000000   0.000000   0.000000  
0010060028       95.740000  6.620000   0.000000   0.000000   0.000000  
0010060029       96.400000  5.400000   0.000000   0.000000   0.000000  
0010060030       98.240000  7.600000   0.000000   0.000000   0.000000  
0010060042       90.000000  6.000000   0.000000   0.000000   0.000000  