[TITLE]
;;Project Title/Notes

[OPTIONS]
;;Option             Value
FLOW_UNITS           LPS
INFILTRATION         GREEN_AMPT
FLOW_ROUTING         KINWAVE
LINK_OFFSETS         ELEVATION
MIN_SLOPE            0
ALLOW_PONDING        YES
SKIP_STEADY_STATE    NO

START_DATE           01/01/2005
START_TIME           00:00:00
REPORT_START_DATE    01/01/2005
REPORT_START_TIME    00:00:00
END_DATE             12/31/2005
END_TIME             23:00:00
SWEEP_START          01/01
SWEEP_END            12/31
DRY_DAYS             0
REPORT_STEP          01:00:00
WET_STEP             01:00:00
DRY_STEP             01:00:00
ROUTING_STEP         0:01:00 

INERTIAL_DAMPING     PARTIAL
NORMAL_FLOW_LIMITED  BOTH
FORCE_MAIN_EQUATION  H-W
VARIABLE_STEP        0.75
LENGTHENING_STEP     0
MIN_SURFAREA         0
MAX_TRIALS           0
HEAD_TOLERANCE       0
SYS_FLOW_TOL         5
LAT_FLOW_TOL         5
MINIMUM_STEP         0.5
THREADS              1

[EVAPORATION]
;;Data Source    Parameters
;;-------------- ----------------
MONTHLY          0.5    0.8    1.5    2.5    3.7    4.4    4.9    4.2    2.6    1.3    1.8    0.7   
DRY_ONLY         YES

[RAINGAGES]
;;Name           Format    Interval SCF      Source    
;;-------------- --------- ------ ------ ----------
DN72-2002        VOLUME    1:00     1.0      TIMESERIES 2002            
SCS1A-40mm       VOLUME    0:30     1.0      TIMESERIES SCS1A-40mm      
SCS1A-80mm       VOLUME    0:30     1.0      TIMESERIES SCS1A-80mm      
SCS1A-106mm      VOLUME    0:30     1.0      TIMESERIES SCS1A-106mm     
DN72-2005        VOLUME    1:00     1.0      TIMESERIES DN72-2005       

[SUBCATCHMENTS]
;;Name           Rain Gage        Outlet           Area     %Imperv  Width    %Slope   CurbLen  SnowPack        
;;-------------- ---------------- ---------------- -------- -------- -------- -------- -------- ----------------
SA1-E            DN72-2005        JA1-GR           0.0407   0        30       0.5      0                        
SA1-I            DN72-2005        JA1-GR           0.0685   0        35       0.5      0                        
SA1-IMPP         DN72-2005        JA1-IMP          0.024941 100      30       0.5      0                        
SA1-IMPR         DN72-2005        JA1-IMP          0.0441   100      30       0.5      0                        
SA1-PI           DN72-2005        JA1-GR           0.0121   0        35       0.5      0                        
SA2-E            DN72-2005        JA2-GR           0.024775 0        35       0.5      0                        
SA2-I            DN72-2005        JA2-GR           0.05122  0        30       0.5      0                        
SA2-IMPP         DN72-2005        JA2-IMP          0.037665 100      30       0.5      0                        
SA2-IMPR         DN72-2005        JA2-IMP          0.031952 100      30       0.5      0                        
SA2-PI           DN72-2005        JA2-GR           0.01815  0        30       0.5      0                        
SA3-E            DN72-2005        JA3-GR           0.045852 0        30       0.5      0                        
SA3-I            DN72-2005        JA3-GR           0.056059 0        30       0.5      0                        
;A3 impermeable podium
SA3-IMPP         DN72-2005        JA3-IMP          0.041681 100      30       0.5      0                        
;A3 impermeable roof
SA3-IMPR         DN72-2005        JA3-IMP          0.0383   100      30       0.5      0                        
SA3-PI           DN72-2005        JA3-GR           0.020069 0        30       0.5      0                        
SA4-E            DN72-2005        JA4-GR           0.047532 0        30       0.5      0                        
SA4-I            DN72-2005        JA4-GR           0.02405  0        30       0.5      0                        
SA4-IMPP         DN72-2005        JA4-IMP          0.043065 100      30       0.5      0                        
SA4-IMPR         DN72-2005        JA4-IMP          0.02134  100      30       0.5      0                        
SA4-PI           DN72-2005        JA4-GR           0.020735 0        30       0.5      0                        
;B1 extens gr
SB1-E            DN72-2005        JB1-GR           0.022355 0        30       0.5      0                        
;B1 intesive gr
SB1-I            DN72-2005        JB1-GR           0.041275 0        30       0.5      0                        
;B1 imperm podium
SB1-IMPP         DN72-2005        JB1-IMP          0.049255 100      30       0.5      0                        
;B1 imperm roof
SB1-IMPR         DN72-2005        JB1-IMP          0.026170 100      30       0.5      0                        
;B1 intensive podium
SB1-PI           DN72-2005        JB1-GR           0.023715 0        30       0.5      0                        
;B2 extensive gr
SB2-E            DN72-2005        JB2-GR           0.06154  0        30       0.5      0                        
;B2 intensive gr
SB2-I            DN72-2005        JB2-GR           0.02977  0        30       0.5      0                        
;B2 imperm podium
SB2-IMPP         DN72-2005        JB2-IMP          0.0553   100      30       0.5      0                        
;B2 imp roof
SB2-IMPR         DN72-2005        JB2-IMP          0.02689  100      30       0.5      0                        
;B2 podium intensive
SB2-PI           DN72-2005        JB2-GR           0.017973 0        30       0.5      0                        
;B3 extens gr
SB3-E            DN72-2005        JB3-GR           0.038803 0        30       0.5      0                        
;B3 intens gr
SB3-I            DN72-2005        JB3-GR           0.038513 0        30       0.5      0                        
;S3-impervious podium
SB3-IMPP         DN72-2005        JB3-IMP          0.035208 100      30       0.5      0                        
;s3 IMPERVIOUS ROOF
SB3-IMPR         DN72-2005        JB3-IMP          0.027585 100      30       0.5      0                        
;S3 intensive podium
SB3-PI           DN72-2005        JB3-GR           0.016952 0        30       0.5      0                        
SB4-E            DN72-2005        JB4-GR           0.0301   0        30       0.5      0                        
;B4 intesive gr
SB4-I            DN72-2005        JB4-GR           0.042835 0        30       0.5      0                        
;B4 imperm podium
SB4-IMPP         DN72-2005        JB4-IMP          0.032063 100      30       0.5      0                        
;B4 intensive podium
SB4-IMPR         DN72-2005        JB4-IMP          0.028381 100      30       0.5      0                        
;B4 intensive podium
SB4-PI           DN72-2005        JB4-GR           0.015438 0        30       0.5      0                        
;C1 extensive gr
SC1-E            DN72-2005        JC1-GR           0.071502 0        30       0.5      0                        
SC1-I            DN72-2005        JC1-GR           0.035685 0        30       0.5      0                        
;C1 imp podium
SC1-IMPP         DN72-2005        WFC1             0.05427  100      30       0.5      0                        
;C1 imp roof
SC1-IMPR         DN72-2005        WFC1             0.031833 100      30       0.5      0                        
SC1-PI           DN72-2005        JC1-GR           0.02613  0        30       0.5      0                        
;C2 extensive gr
SC2-E            DN72-2005        JC2-GR           0.048663 0        30       0.5      0                        
;C1 intensive gr
SC2-I            DN72-2005        JC2-GR           0.049066 0        30       0.5      0                        
;C2 imp roof
SC2-IMPR         DN72-2005        J59              0.032212 100      30       0.5      0                        
;C3 extensive gr
SC3-E            DN72-2005        JC34-GR          0.031306 0        30       0.5      0                        
;C3 intensive gr
SC3-I            DN72-2005        JC34-GR          0.02003  0        30       0.5      0                        
;C3 impermeable podium
SC3-IMPP         DN72-2005        JC34-IMP         0.0163   100      30       0.5      0                        
;C3 imp roof
SC3-IMPR         DN72-2005        JC34-IMP         0.0163   100      30       0.5      0                        
SC3-PI           DN72-2005        JC34-GR          0.0105   0        10       0.5      0                        
SC4-E            DN72-2005        JC34-GR          0.0441   0        30       0.5      0                        
SC4-I            DN72-2005        JC34-GR          0.03784  0        30       0.5      0                        
SC4-IMPP         DN72-2005        JC34-IMP         0.0331   100      30       0.5      0                        
SC4-IMPR         DN72-2005        JC34-IMP         0.02815  100      30       0.5      0                        
SC4-PI           DN72-2005        JC34-GR          0.015943 0        30       0.5      0                        
SC5-E            DN72-2005        J40              0.0328   0        30       0.5      0                        
SC5-I            DN72-2005        J40              0.1520   0        30       0.5      0                        
SC5-IMPP         DN72-2005        WFC1             0.03561  100      30       0.5      0                        
SC5-IMPR         DN72-2005        WFC1             0.03261  100      30       0.5      0                        
SC5-PI           DN72-2005        J40              0.01714  0        30       0.5      0                        
SD1-E            DN72-2005        JD1-GR           0.05015  0        30       0.5      0                        
SD1-I            DN72-2005        JD1-GR           0.0681   0        50       0.5      0                        
SD1-IMPP         DN72-2005        JD1-IMP          0.0483   100      30       0.5      0                        
SD1-IMPR         DN72-2005        JD1-IMP          0.04554  100      30       0.5      0                        
SD1-PI           DN72-2005        JD1-GR           0.02325  0        30       0.5      0                        
SD2-E            DN72-2005        JD2-GR           0.04706  0        30       0.5      0                        
SD2-I            DN72-2005        JD2-GR           0.08076  0        30       0.5      0                        
SD2-IMPP         DN72-2005        JD2-IMP          0.0289   100      30       0.5      0                        
SD2-IMPR         DN72-2005        JD2-IMP          0.05179  100      30.      0.5      0                        
SD2-PI           DN72-2005        JD2-GR           0.01391  0        30       0.5      0                        
SD3-E            DN72-2005        JD3-GR           0.04666  0        30       0.5      0                        
SD3-I            DN72-2005        JD3-GR           0.04838  0        30       0.5      0                        
SD3-IMPP         DN72-2005        JD3-IMP          0.045124 100      30       0.5      0                        
SD3-IMPR         DN72-2005        JD3-IMP          0.03428  100      30       0.5      0                        
SD3-PI           DN72-2005        JD3-GR           0.02173  0        30       0.5      0                        
SD4-E            DN72-2005        JD4-GR           0.038675 0        30       0.5      0                        
SD4-I            DN72-2005        JD4-GR           0.02711  0        30       0.5      0                        
SD4-IMPP         DN72-2005        JD4-IMP          0.06406  100      30       0.5      0                        
SD4-IMPR         DN72-2005        JD4-IMP          0.02652  100      30       0.5      0                        
SD4-PI           DN72-2005        JD4-GR           0.03084  0        30       0.5      0                        
SD5-E            DN72-2005        JD5-GR           0.038675 0        30       0.5      0                        
SD5-I            DN72-2005        JD5-GR           0.02711  0        30       0.5      0                        
SD5-IMPP         DN72-2005        JD5-IMP          0.0398   100      30       0.5      0                        
SD5-IMPR         DN72-2005        JD5-IMP          0.02652  100      30       0.5      0                        
SD5-PI           DN72-2005        JD5-GR           0.019156 0        30       0.5      0                        
SWF-A1           DN72-2005        WFA1             0.01482  100      500      0.5      0                        
SWF-A2           DN72-2005        WFA2             0.0210   100      500      0.5      0                        
;sub catchment of WF-B1
SWF-B1           DN72-2005        WFB1             0.01482  100      500      0.5      0                        
;sub catchment of WF B2
SWF-B2           DN72-2005        WFB2             0.0210   100      500      0.5      0                        
;Subcatchment for WF-C1
SWF-C2           DN72-2005        WFC2             0.006    100      500      0.5      0                        
SWF-D1           DN72-2005        WFD1             0.027    100      500      0.5      0                        
SWF-D2           DN72-2005        WFD2             0.0225   100      500      0.5      0                        
SWF-D3           DN72-2005        WFD3             0.006    100      500      0.5      0                        
SWF-C1           DN72-2005        WFC1             0.0124   100      500      0.5      0                        

[SUBAREAS]
;;Subcatchment   N-Imperv   N-Perv     S-Imperv   S-Perv     PctZero    RouteTo    PctRouted 
;;-------------- ---------- ---------- ---------- ---------- ---------- ---------- ----------
SA1-E            0.01       0.1        0.05       0.05       100        OUTLET    
SA1-I            0.01       0.1        0.05       0.05       100        OUTLET    
SA1-IMPP         0.01       0.1        0.05       0.05       25         OUTLET    
SA1-IMPR         0.01       0.1        0.05       0.05       100        OUTLET    
SA1-PI           0.01       0.1        0.05       0.05       100        OUTLET    
SA2-E            0.01       0.1        0.05       0.05       100        OUTLET    
SA2-I            0.01       0.1        0.05       0.05       100        OUTLET    
SA2-IMPP         0.01       0.1        0.05       0.05       100        OUTLET    
SA2-IMPR         0.01       0.1        0.05       0.05       100        OUTLET    
SA2-PI           0.01       0.1        0.05       0.05       100        OUTLET    
SA3-E            0.01       0.1        0.05       0.05       100        OUTLET    
SA3-I            0.01       0.1        0.05       0.05       100        OUTLET    
SA3-IMPP         0.01       0.1        0.05       0.05       100        OUTLET    
SA3-IMPR         0.01       0.1        0.05       0.05       25         OUTLET    
SA3-PI           0.01       0.1        0.05       0.05       25         OUTLET    
SA4-E            0.01       0.1        0.05       0.05       100        OUTLET    
SA4-I            0.01       0.1        0.05       0.05       100        OUTLET    
SA4-IMPP         0.01       0.1        0.05       0.05       100        OUTLET    
SA4-IMPR         0.01       0.1        0.05       0.05       25         OUTLET    
SA4-PI           0.01       0.1        0.05       0.05       25         OUTLET    
SB1-E            0.01       0.1        0.05       0.05       0          OUTLET    
SB1-I            0.01       0.1        0.05       0.05       0          OUTLET    
SB1-IMPP         0.01       0.1        0.05       0.05       100        OUTLET    
SB1-IMPR         0.01       0.1        0.05       0.05       100        OUTLET    
SB1-PI           0.01       0.1        0.05       0.05       0          OUTLET    
SB2-E            0.01       0.1        0.05       0.05       25         OUTLET    
SB2-I            0.01       0.1        0.05       0.05       25         OUTLET    
SB2-IMPP         0.01       0.1        0.05       0.05       25         OUTLET    
SB2-IMPR         0.01       0.1        0.05       0.05       25         OUTLET    
SB2-PI           0.01       0.1        0.05       0.05       25         OUTLET    
SB3-E            0.01       0.1        0.05       0.05       0          OUTLET    
SB3-I            0.01       0.1        0.05       0.05       0          OUTLET    
SB3-IMPP         0.01       0.1        0.05       0.05       100        OUTLET    
SB3-IMPR         0.01       0.1        0.05       0.05       100        OUTLET    
SB3-PI           0.01       0.1        0.05       0.05       0          OUTLET    
SB4-E            0.01       0.1        0.05       0.05       100        OUTLET    
SB4-I            0.01       0.1        0.05       0.05       100        OUTLET    
SB4-IMPP         0.01       0.1        0.05       0.05       100        OUTLET    
SB4-IMPR         0.01       0.1        0.05       0.05       100        OUTLET    
SB4-PI           0.01       0.1        0.05       0.05       0          OUTLET    
SC1-E            0.01       0.1        0.05       0.05       0          OUTLET    
SC1-I            0.01       0.1        0.05       0.05       0          OUTLET    
SC1-IMPP         0.01       0.1        0.05       0.05       100        OUTLET    
SC1-IMPR         0.01       0.1        0.05       0.05       100        OUTLET    
SC1-PI           0.01       0.1        0.05       0.05       25         OUTLET    
SC2-E            0.01       0.1        0.05       0.05       0          OUTLET    
SC2-I            0.01       0.1        0.05       0.05       0          OUTLET    
SC2-IMPR         0.01       0.1        0.05       0.05       100        OUTLET    
SC3-E            0.01       0.1        0.05       0.05       0          OUTLET    
SC3-I            0.01       0.1        0.05       0.05       0          OUTLET    
SC3-IMPP         0.01       0.1        0.05       0.05       100        OUTLET    
SC3-IMPR         0.01       0.1        0.05       0.05       100        OUTLET    
SC3-PI           0.01       0.1        0.05       0.05       0          OUTLET    
SC4-E            0.01       0.1        0.05       0.05       0          OUTLET    
SC4-I            0.01       0.1        0.05       0.05       0          OUTLET    
SC4-IMPP         0.01       0.1        0.05       0.05       100        OUTLET    
SC4-IMPR         0.01       0.1        0.05       0.05       100        OUTLET    
SC4-PI           0.01       0.1        0.05       0.05       0          OUTLET    
SC5-E            0.01       0.1        0.05       0.05       0          OUTLET    
SC5-I            0.01       0.1        0.05       0.05       0          OUTLET    
SC5-IMPP         0.01       0.1        0.05       0.05       100        OUTLET    
SC5-IMPR         0.01       0.1        0.05       0.05       100        OUTLET    
SC5-PI           0.01       0.1        0.05       0.05       0          OUTLET    
SD1-E            0.01       0.1        0.05       0.05       0          OUTLET    
SD1-I            0.01       0.1        0.05       0.05       0          OUTLET    
SD1-IMPP         0.01       0.1        0.05       0.05       100        OUTLET    
SD1-IMPR         0.01       0.1        0.05       0.05       100        OUTLET    
SD1-PI           0.01       0.1        0.05       0.05       0          OUTLET    
SD2-E            0.01       0.1        0.05       0.05       0          OUTLET    
SD2-I            0.01       0.1        0.05       0.05       0          OUTLET    
SD2-IMPP         0.01       0.1        0.05       0.05       100        OUTLET    
SD2-IMPR         0.01       0.1        0.05       0.05       100        OUTLET    
SD2-PI           0.01       0.1        0.05       0.05       0          OUTLET    
SD3-E            0.01       0.1        0.05       0.05       0          OUTLET    
SD3-I            0.01       0.1        0.05       0.05       0          OUTLET    
SD3-IMPP         0.01       0.1        0.05       0.05       100        OUTLET    
SD3-IMPR         0.01       0.1        0.05       0.05       100        OUTLET    
SD3-PI           0.01       0.1        0.05       0.05       0          OUTLET    
SD4-E            0.01       0.1        0.05       0.05       0          OUTLET    
SD4-I            0.01       0.1        0.05       0.05       0          OUTLET    
SD4-IMPP         0.01       0.1        0.05       0.05       100        OUTLET    
SD4-IMPR         0.01       0.1        0.05       0.05       100        OUTLET    
SD4-PI           0.01       0.1        0.05       0.05       0          OUTLET    
SD5-E            0.01       0.1        0.05       0.05       0          OUTLET    
SD5-I            0.01       0.1        0.05       0.05       0          OUTLET    
SD5-IMPP         0.01       0.1        0.05       0.05       100        OUTLET    
SD5-IMPR         0.01       0.1        0.05       0.05       100        OUTLET    
SD5-PI           0.01       0.1        0.05       0.05       0          OUTLET    
SWF-A1           0.01       0.1        0.05       0.05       100        OUTLET    
SWF-A2           0.01       0.1        0.05       0.05       25         OUTLET    
SWF-B1           0.01       0.1        0.05       0.05       100        OUTLET    
SWF-B2           0.01       0.1        0          0.05       100        OUTLET    
SWF-C2           0.01       0.1        0.05       0.05       25         OUTLET    
SWF-D1           0.01       0.1        0.05       0.05       100        OUTLET    
SWF-D2           0.01       0.1        0.05       0.05       100        OUTLET    
SWF-D3           0.01       0.1        0.05       0.05       100        OUTLET    
SWF-C1           0.01       0.1        0.05       0.05       25         OUTLET    

[INFILTRATION]
;;Subcatchment   Suction    Ksat       IMD       
;;-------------- ---------- ---------- ----------
SA1-E            3.0        0.5        4         
SA1-I            3.0        0.5        4         
SA1-IMPP         3.5        0.5        0.25      
SA1-IMPR         3.5        0.5        0.25      
SA1-PI           3.0        0.5        4         
SA2-E            3.0        0.5        4         
SA2-I            3.0        0.5        4         
SA2-IMPP         3.0        0.5        4         
SA2-IMPR         3.5        0.5        0.25      
SA2-PI           3.5        0.5        0.25      
SA3-E            3.0        0.5        4         
SA3-I            3.0        0.5        4         
SA3-IMPP         3.0        0.5        4         
SA3-IMPR         3.5        0.5        0.25      
SA3-PI           3.5        0.5        0.25      
SA4-E            3.0        0.5        4         
SA4-I            3.0        0.5        4         
SA4-IMPP         3.0        0.5        4         
SA4-IMPR         3.5        0.5        0.25      
SA4-PI           3.5        0.5        0.25      
SB1-E            3.5        0.5        0.25      
SB1-I            3.5        0.5        0.25      
SB1-IMPP         3.5        0.5        0.25      
SB1-IMPR         3.5        0.5        0.25      
SB1-PI           3.5        0.5        0.25      
SB2-E            3.5        0.5        0.25      
SB2-I            3.5        0.5        0.25      
SB2-IMPP         3.5        0.5        0.25      
SB2-IMPR         3.5        0.5        0.25      
SB2-PI           3.5        0.5        0.25      
SB3-E            3.5        0.5        0.25      
SB3-I            3.5        0.5        0.25      
SB3-IMPP         3.5        0.5        0.25      
SB3-IMPR         3.5        0.5        0.25      
SB3-PI           3.5        0.5        0.25      
SB4-E            3.5        0.5        0.25      
SB4-I            3.5        0.5        0.25      
SB4-IMPP         3.5        0.5        0.25      
SB4-IMPR         3.5        0.5        0.25      
SB4-PI           3.5        0.5        0.25      
SC1-E            3.5        0.5        0.25      
SC1-I            3.5        0.5        0.25      
SC1-IMPP         3.5        0.5        0.25      
SC1-IMPR         3.5        0.5        0.25      
SC1-PI           3.5        0.5        0.25      
SC2-E            3.5        0.5        0.25      
SC2-I            3.5        0.5        0.25      
SC2-IMPR         3.5        0.5        0.25      
SC3-E            3.5        0.5        0.25      
SC3-I            3.5        0.5        0.25      
SC3-IMPP         3.5        0.5        0.25      
SC3-IMPR         3.5        0.5        0.25      
SC3-PI           3.5        0.5        0.25      
SC4-E            3.5        0.5        0.25      
SC4-I            3.5        0.5        0.25      
SC4-IMPP         3.5        0.5        0.25      
SC4-IMPR         3.5        0.5        0.25      
SC4-PI           3.5        0.5        0.25      
SC5-E            3.5        0.5        0.25      
SC5-I            3.5        0.5        0.25      
SC5-IMPP         3.5        0.5        0.25      
SC5-IMPR         3.5        0.5        0.25      
SC5-PI           3.5        0.5        0.25      
SD1-E            3.5        0.5        0.25      
SD1-I            3.5        0.5        0.25      
SD1-IMPP         3.5        0.5        0.25      
SD1-IMPR         3.5        0.5        0.25      
SD1-PI           3.5        0.5        0.25      
SD2-E            3.5        0.5        0.25      
SD2-I            3.5        0.5        0.25      
SD2-IMPP         3.5        0.5        0.25      
SD2-IMPR         3.5        0.5        0.25      
SD2-PI           3.5        0.5        0.25      
SD3-E            3.5        0.5        0.25      
SD3-I            3.5        0.5        0.25      
SD3-IMPP         3.5        0.5        0.25      
SD3-IMPR         3.5        0.5        0.25      
SD3-PI           3.5        0.5        0.25      
SD4-E            3.5        0.5        0.25      
SD4-I            3.5        0.5        0.25      
SD4-IMPP         3.5        0.5        0.25      
SD4-IMPR         3.5        0.5        0.25      
SD4-PI           3.5        0.5        0.25      
SD5-E            3.5        0.5        0.25      
SD5-I            3.5        0.5        0.25      
SD5-IMPP         3.5        0.5        0.25      
SD5-IMPR         3.5        0.5        0.25      
SD5-PI           3.5        0.5        0.25      
SWF-A1           3.5        0.5        0.25      
SWF-A2           3.5        0.5        0.25      
SWF-B1           3.5        0.5        0.25      
SWF-B2           3.5        0.5        0.25      
SWF-C2           3.5        0.5        0.25      
SWF-D1           3.5        0.5        0.25      
SWF-D2           3.5        0.5        0.25      
SWF-D3           3.5        0.5        0.25      
SWF-C1           3.5        0.5        0.25      

[LID_CONTROLS]
;;Name           Type/Layer Parameters
;;-------------- ---------- ----------
GRE              BC
GRE              SURFACE    25         0.15       0          0          5         
GRE              SOIL       150        0.44       0.11       .024       120        5          49        
GRE              STORAGE    75         0.4        0          0         
GRE              DRAIN      20         0.5        40         6         

GRI              BC
GRI              SURFACE    25         0.15       0          0          5         
GRI              SOIL       300        0.45       0.19       0.085      10         5          110       
GRI              STORAGE    75         0.4        0          0         
GRI              DRAIN      20         0.5        40         6         

RainBarrel1      RB
RainBarrel1      STORAGE    2500       0.75       10         0         
RainBarrel1      DRAIN      0.1        0.5        0          96        

[LID_USAGE]
;;Subcatchment   LID Process      Number  Area       Width      InitSat    FromImp    ToPerv     RptFile                  DrainTo         
;;-------------- ---------------- ------- ---------- ---------- ---------- ---------- ---------- ------------------------ ----------------
SA1-E            GRE              1       407.00     15         0          0          0         
SA1-I            GRI              1       685.00     15         0          0          0         
SA1-IMPP         RainBarrel1      1       5          0          0          100        0          "F:\2016PC\November, 2013 Models\A1 Podium RainBarrel.txt"
SA1-IMPR         RainBarrel1      1       27         0          0          100        0          "F:\2016PC\November, 2013 Models\A1 Roof RainBarrel.txt"
SA1-PI           GRI              1       121.00     15         0          0          0         
SA2-E            GRE              1       247.75     15         0          0          0         
SA2-I            GRI              1       512.20     15         0          0          0         
SA2-IMPP         RainBarrel1      1       7          0          0          100        0          "F:\2016PC\November, 2013 Models\A2 Podium RainBarrel.txt"
SA2-IMPR         RainBarrel1      1       20         0          0          100        0          "F:\2016PC\November, 2013 Models\A2 Roof RainBarrel.txt"
SA2-PI           GRI              1       181.50     0          0          0          0         
SA3-E            GRE              1       458.52     15         0          0          0         
SA3-I            GRI              1       560.59     15         0          0          0         
SA3-IMPP         RainBarrel1      1       8          0          0          100        0          "F:\2016PC\November, 2013 Models\A3 Podium RainBarrel.txt"
SA3-IMPR         RainBarrel1      1       22         0          0          100        0          "F:\2016PC\November, 2013 Models\A3 Roof Rainbarrel.txt"
SA3-PI           GRI              1       200.69     0          0          0          0         
SA4-E            GRE              1       475.32     15         0          0          0         
SA4-I            GRI              1       240.50     15         0          0          0         