[TITLE]
;;Project Title/Notes

[OPTIONS]
;;Option             Value
FLOW_UNITS           CFS
INFILTRATION         HORTON
FLOW_ROUTING         DYNWAVE
LINK_OFFSETS         DEPTH
MIN_SLOPE            0
ALLOW_PONDING        YES
SKIP_STEADY_STATE    NO

START_DATE           01/01/1988
START_TIME           00:00:00
REPORT_START_DATE    01/01/1988
REPORT_START_TIME    00:00:00
END_DATE             01/05/1988
END_TIME             23:00:00
SWEEP_START          01/01
SWEEP_END            12/31
DRY_DAYS             0
REPORT_STEP          00:10:00
WET_STEP             00:01:00
DRY_STEP             01:00:00
ROUTING_STEP         0:00:05 

INERTIAL_DAMPING     FULL
NORMAL_FLOW_LIMITED  BOTH
FORCE_MAIN_EQUATION  H-W
VARIABLE_STEP        0.75
LENGTHENING_STEP     5
MIN_SURFAREA         12.566
MAX_TRIALS           8
HEAD_TOLERANCE       0.001
SYS_FLOW_TOL         5
LAT_FLOW_TOL         5
MINIMUM_STEP         0
THREADS              1

[EVAPORATION]
;;Data Source    Parameters
;;-------------- ----------------
CONSTANT         0.0
DRY_ONLY         NO

[RAINGAGES]
;;Name           Format    Interval SCF      Source    
;;-------------- --------- ------ ------ ----------
Gage1            INTENSITY 1:00     1.0      TIMESERIES 10YR            

[SUBCATCHMENTS]
;;Name           Rain Gage        Outlet           Area     %Imperv  Width    %Slope   CurbLen  SnowPack        
;;-------------- ---------------- ---------------- -------- -------- -------- -------- -------- ----------------
SDA1             Gage1            J32              8.32     80       4027     1.3      0                        
SDA2             Gage1            SU33             8.62     25       3755     1.8      0                        
SDA3             Gage1            J16              13.11    33       5711     1.5      0                        
SDA4             Gage1            SU14             9.45     20       4116     2.1      0                        
SDA5             Gage1            J29              2.63     65       1146     2        0                        
SDA6             Gage1            J28              .49      90       213      1.7      0                        
SDA7             Gage1            J13              1.51     30       877      3.4      0                        
SDA8             Gage1            J11              3.5      25       1525     5.9      0                        
SDA9             Gage1            J70              2.36     28       1371     3        0                        
SDA10            Gage1            J36              2.71     72       1180     6.3      0                        
SDA11            Gage1            J50              8.12     85       3537     2.6      0                        
SDA13            Gage1            J27              7.35     74       3202     2.4      0                        
SDA14            Gage1            J21              5.68     30       2474     4        0                        
SDA15            Gage1            J75              6.86     25       2988     3.6      0                        
SDA16            Gage1            J72              3.4      25       1481     6.4      0                        
SDA17            Gage1            SU39             3.73     25       1625     4.6      0                        
SDA18            Gage1            J41              2.03     22       884      2.6      0                        
SDA19            Gage1            J79              15.2     70       6621     2.3      0                        
SDA20            Gage1            J18              3.33     25       1451     2.7      0                        
SDA21            Gage1            J61              1.2      70       523      3.8      0                        
SDA22            Gage1            J83              3.62     38       1577     3.4      0                        
SDA23            Gage1            J82              3.05     38       1329     2.3      0                        
SDA24            Gage1            J63              0.95     55       414      2.7      0                        
SDA25            Gage1            J65              1.11     72       484      2.1      0                        
SDA26            Gage1            J84              22.8     35       9932     2.3      0                        
SDA27            Gage1            J86              11.3     28       4922     2.6      0                        
SDA28            Gage1            J88              1.59     28       693      3.6      0                        
SDA29            Gage1            J91              9.42     70       8000     1.9      0                        
SDA30            Gage1            J89              2.56     25       1115     2.1      0                        
SDA31            Gage1            J42              2.07     90       1202     4        0                        
SDA32            Gage1            J52              2.58     82       1124     5.2      0                        
SDA33            Gage1            J54              1.93     38       841      3.7      0                        
SDA34            Gage1            SU56             2.41     38       1050     5.3      0                        
SDA35            Gage1            J57              10.43    38       4543     3.5      0                        
SDA36            Gage1            SU58             8.97     10       3907     3.4      0                        
SDA37            Gage1            J59              22.12    35       9635     1.4      0                        
SDA38            Gage1            J48              4.55     60       1982     1.8      0                        
SDA39            Gage1            J49              1.65     50       898      .3       0                        

[SUBAREAS]
;;Subcatchment   N-Imperv   N-Perv     S-Imperv   S-Perv     PctZero    RouteTo    PctRouted 
;;-------------- ---------- ---------- ---------- ---------- ---------- ---------- ----------
SDA1             .015       0.1        0.05       .2         25         OUTLET    
SDA2             .015       0.1        0.05       .2         25         OUTLET    
SDA3             .015       0.1        0.05       .2         25         OUTLET    
SDA4             .015       0.1        0.05       .2         25         OUTLET    
SDA5             .015       0.1        0.05       .2         25         OUTLET    
SDA6             .015       0.1        0.05       .2         25         OUTLET    
SDA7             .015       0.1        0.05       .2         25         OUTLET    
SDA8             .015       0.1        0.05       .2         25         OUTLET    
SDA9             .015       0.1        0.05       .2         25         OUTLET    
SDA10            .015       0.1        0.05       .2         25         OUTLET    
SDA11            .015       0.1        0.05       .2         25         OUTLET    
SDA13            .015       0.1        0.05       .2         25         OUTLET    
SDA14            .015       0.1        0.05       .2         25         OUTLET    
SDA15            .015       0.1        0.05       .2         25         OUTLET    
SDA16            .015       0.1        0.05       .2         25         OUTLET    
SDA17            .015       0.1        0.05       .2         25         OUTLET    
SDA18            .015       0.1        0.05       .2         25         OUTLET    
SDA19            .015       0.1        0.05       .2         25         OUTLET    
SDA20            .015       0.1        0.05       .2         25         OUTLET    
SDA21            .015       0.1        0.05       .2         25         OUTLET    
SDA22            .015       0.1        0.05       .2         25         OUTLET    
SDA23            .015       0.1        0.05       .2         25         OUTLET    
SDA24            .015       0.1        0.05       .2         25         OUTLET    
SDA25            .015       0.1        0.05       .2         25         OUTLET    
SDA26            .015       0.1        0.05       .2         25         OUTLET    
SDA27            .015       0.1        0.05       .2         25         OUTLET    
SDA28            .015       0.1        0.05       .2         25         OUTLET    
SDA29            .015       .1         0.05       .2         100        OUTLET    
SDA30            .015       0.1        0.05       .2         25         OUTLET    
SDA31            .015       0.1        0.05       .2         25         OUTLET    
SDA32            .015       0.1        0.05       .2         25         OUTLET    
SDA33            .015       0.1        0.05       .2         25         OUTLET    
SDA34            .015       0.1        0.05       .2         25         OUTLET    
SDA35            .015       0.1        0.05       .2         25         OUTLET    
SDA36            .015       0.1        0.05       .2         25         OUTLET    
SDA37            .015       0.1        0.05       .2         25         OUTLET    
SDA38            0.015      0.1        0.05       .2         25         OUTLET    
SDA39            0.015      0.1        0.05       .2         25         OUTLET    

[INFILTRATION]
;;Subcatchment   MaxRate    MinRate    Decay      DryTime    MaxInfil  
;;-------------- ---------- ---------- ---------- ---------- ----------
SDA1             .57        0          4          7          0         
SDA2             .57        0          4          7          0         
SDA3             .57        0          4          7          0         
SDA4             .57        0          4          7          0         
SDA5             .57        0          4          7          0         
SDA6             1.09       0.06       4          7          0         
SDA7             0.57       0.06       4          7          0         
SDA8             1.3        0          4          7          0         
SDA9             1.98       0.06       4          7          0         
SDA10            1.98       0.06       4          7          0         
SDA11            0.06       0          4          7          0         
SDA13            0.57       0          4          7          0         
SDA14            0.57       0          4          7          0         
SDA15            1.98       0.06       4          7          0         
SDA16            1.98       0.06       4          7          0         
SDA17            1.09       0.06       4          7          0         
SDA18            1.98       0.06       4          7          0         
SDA19            0.57       0          4          7          0         
SDA20            1.09       0.06       4          7          0         
SDA21            1.09       0.06       4          7          0         
SDA22            1.09       0          4          7          0         
SDA23            1.09       0.06       4          7          0         
SDA24            1.09       0.06       4          7          0         
SDA25            1.09       0.06       4          7          0         
SDA26            1.98       0          4          7          0         
SDA27            .57        0          4          7          0         
SDA28            1.09       0.06       4          7          0         
SDA29            0.57       0          4          7          0         
SDA30            0.57       0          4          7          0         
SDA31            0.57       0          4          7          0         
SDA32            0.57       0          4          7          0         
SDA33            0.57       0          4          7          0         
SDA34            0.57       0          4          7          0         
SDA35            1.98       0          4          7          0         
SDA36            1.98       0.06       4          7          0         
SDA37            1.98       0.06       4          7          0         
SDA38            0.57       0          4          7          0         
SDA39            0.57       0          4          7          0         

[JUNCTIONS]
;;Name           Elevation  MaxDepth   InitDepth  SurDepth   Aponded   
;;-------------- ---------- ---------- ---------- ---------- ----------
J10              51.23      48.77      0          0          0         
J11              55.35      44.65      0          0          0         
J12              56.15      43.85      0          0          0         
J13              57.21      42.79      0          0          0         
J15              69         31         0          0          0         
J16              69.69      30.31      0          0          0         
J17              74         26         0          0          0         
J18              74.5       25.5       0          0          0         
J19              54.46      45.54      0          0          0         
J20              54.14      45.86      0          0          0         
J21              53.67      46.33      0          0          0         
J22              60.89      39.11      0          0          0         
J23              65.93      34.07      0          0          0         
J24              71.41      28.59      0          0          0         
J25              73.38      26.62      0          0          0         
J26              74.89      25.11      0          0          0         
J27              75.55      24.45      0          0          0         
J28              64.14      35.86      0          0          0         
J29              71.02      28.98      0          0          0         
J31              36.74      63.26      0          0          0         
J32              40.08      59.92      0          0          0         
J34              42.08      57.92      0          0          0         
J35              43.13      56.87      0          0          0         
J36              45.17      54.83      0          0          0         
J37              45.77      54.23      0          0          0         
J38              46         54         0          0          0         
J40              54.73      45.27      0          0          0         
J41              58.17      41.83      0          0          0         
J42              58.89      41.11      0          0          0         
J43              61.3       38.7       0          0          0         
J44              63.29      36.71      0          0          0         
J45              65.56      34.44      0          0          0         
J46              70.42      29.58      0          0          0         
J47              75.88      24.12      0          0          0         
J48              81.37      18.63      0          0          0         
J49              90         10         0          0          0         
J50              47.67      52.33      0          0          0         
J51              50.51      49.49      0          0          0         
J52              53.49      46.51      0          0          0         
J53              53.5       46.5       0          0          0         
J54              56.05      43.95      0          0          0         
J55              58.01      41.99      0          0          0         
J57              61.55      38.45      0          0          0         
J59              78.39      21.61      0          0          0         
J60              69.15      30.85      0          0          0         
J61              71.6       28.4       0          0          0         
J62              72.77      27.23      0          0          0         
J63              78         22         0          0          0         
J64              81.99      18.01      0          0          0         
J65              82.99      17.01      0          0          0         
J70              45.93      54.07      0          0          0         
J71              46.33      53.67      0          0          0         
J72              47.47      52.53      0          0          0         
J73              48.52      51.48      0          0          0         
J74              48.36      51.64      0          0          0         
J75              49.98      50.02      0          0          0         
J76              52.58      47.42      0          0          0         
J78              55.6       44.4       0          0          0         
J79              56.43      43.57      0          0          0         
J80              60.94      39.06      0          0          0         
J81              60.85      39.15      0          0          0         
J82              62.06      37.94      0          0          0         
J83              63.56      36.44      0          0          0         
J84              64.56      35.44      0          0          0         
J85              65.55      34.45      0          0          0         
J86              65.56      34.44      0          0          0         
J87              73.51      26.49      0          0          0         
J88              74.76      25.24      0          0          0         
J89              77.38      22.62      0          0          0         
J90              79.92      20.08      0          0          0         
J91              80.73      19.27      0          0          0         
J92              48         52         0          0          0         
J93              47.5       52.5       0          0          0         

[OUTFALLS]
;;Name           Elevation  Type       Stage Data       Gated    Route To        
;;-------------- ---------- ---------- ---------------- -------- ----------------
OUT30            34         FREE                        NO                       

[STORAGE]
;;Name           Elev.    MaxDepth   InitDepth  Shape      Curve Name/Params            N/A      Fevap    Psi      Ksat     IMD     
;;-------------- -------- ---------- ----------- ---------- ---------------------------- -------- --------          -------- --------
SU14             61.31    10.01      0          TABULAR    14                           0        0       
SU33             41.78    18.22      0          TABULAR    33                           0        0       
SU39             48.34    11.66      0          TABULAR    39                           0        0       
SU56             57.94    12.06      0          TABULAR    56                           67954    0       
SU58             62.49    12.51      0          TABULAR    58                           0        0       
112              50.25    3          0          TABULAR    112                          0        0       

[CONDUITS]
;;Name           From Node        To Node          Length     Roughness  InOffset   OutOffset  InitFlow   MaxFlow   
;;-------------- ---------------- ---------------- ---------- ---------- ---------- ---------- ---------- ----------
3130             J31              OUT30            400        .035       0          0          0          0         
;60" RCP
3231             J32              J31              100        .0294      0          0          0          0         
;4'x3' Brick Arch
3332             SU33             J32              136        .025       0          0          0          0         
5033             J50              SU33             155        .035       0          0          0          0         
5142             J51              J42              90         .035       11.2       3          0          0         
5251             J52              J51              148        0.015      0          0          0          0         
5352             J53              J52              85         .035       0          0          0          0         
5453             J54              J53              80         .0157      0          0          0          0         
5554             J55              J54              69         .035       0          0          0          0         
;Conduit 5655 is completely obstructed (or non-existant); flow passes through embankment model as "low flow pipe"---assume 12"
5655             SU56             J55              50         .025       0          0          0          0         
;Conduit 5600 is an embankment overlow channel
5600             SU56             J55              50         .035       8          8          0          0         
5756             J57              SU56             411        .035       0          0          0          0         
5857             SU58             J57              110        .0164      0          0          0          0         
5958             J59              SU58             693        .1         0          0          0          0         
3433             J34              SU33             65         .035       0          0          0          0         
3534             J35              J34              40         .0324      0          0          0          0         
3635             J36              J35              160        .0197      0          .25        0          0         
3736             J37              J36              90         .0237      0          .09        0          0         
3837             J38              J37              16         .0487      0          0          0          0         
3834             J38              J34              300        .015       8.5        9.92       0          0         
3938             SU39             J38              108        .019       0          1.05       0          0         
;Roadway Overtopping Sections @ Route 143 72711
1939             J19              SU39             110        .025       0          0          0          0         
1972             J19              J72              190        .025       0          0          0          0         
1739             J17              SU39             430        .035       0          0          0          0         
1817             J18              J17              36         .0236      0          0          0          0         
4039             J40              SU39             32         .0226      0          5.32       0          0         
4140             J41              J40              225        .015       0          0          0          0         
6041             J60              J41              440        .025       0          0          0          0         
6160             J61              J60              70         .0169      0          0          0          0         
6257             J62              J57              270        .035       0          0          0          0         
6362             J63              J62              40         .0193      0          0          0          0         
6463             J64              J63              110        .025       0          1.42       0          0         
6564             J65              J64              44         .0205      0          0          0          0         
4241             J42              J41              48         .0215      0          0          0          0         
4342             J43              J42              110        .025       0          0          0          0         
4443             J44              J43              90         .0171      0          0          0          0         
4544             J45              J44              100        .0167      0          0          0          0         
4645             J46              J45              90         .0171      0          0          0          0         
4746             J47              J46              115        .0163      0          0          0          0         
4847             J48              J47              160        .0154      0          0          0          0         
48471            J48              J47              160        .015       2.3        3.16       0          0         
47461            J47              J46              115        .015       3.16       4.24       0          0         
46451            J46              J45              90         .015       4.24       4.9        0          0         
45441            J45              J44              100        .015       4.9        3.51       0          0         
44431            J44              J43              90         .015       3.51       3.51       0          0         
42411            J42              J41              48         .015       2.11       3.33       0          0         
4948             J49              J48              300        .025       0          2.3        0          0         
7038             J70              J38              115        .0218      0          0          0          0         
7170             J71              J70              130        .025       0          0          0          0         
1071             J10              J71              90         .025       0          0          0          0         
1110             J11              J10              120        .0161      0          0          0          0         
1211             J12              J11              110        .025       0          0          0          0         
1312             J13              J12              90         .0171      0          0          0          0         
1413             SU14             J13              230        .025       0          0          0          0         
1514             J15              SU14             560        .035       0          0          0          0         
1615             J16              J15              30         .021       0          0          0          0         
16151            J16              J15              30         .015       1.81       1.81       0          0         
7271             J72              J71              96         .0232      0          0          0          0         
;Roadway Overtopping section @ Route 143 Low Point is Condiut 72711
72711            J72              J71              96         .015       8.21       9.34       0          0         
7372             J73              J72              80         .025       0          0          0          0         
74730            J74              J73              44         .0252      0          .13        0          0         
74731            J74              J73              44         .0252      .6         0          0          0         
74732            J74              J73              44         .0221      3.33       2.04       0          0         
;Driveway Overtopping Section is 74733
74733            J74              J73              44         .015       7.64       7.38       0          0         
7574             J75              J74              170        .025       0          0          0          0         
7675             J76              J75              220        .025       0          0          0          0         
7877             J78              J76              194        .025       0          0          0          0         
7978             J79              J78              56         .0258      0          0          0          0         
79781            J79              J78              56         .015       6.27       7.07       0          0         
8079             J80              J79              80         .025       0          0          0          0         
80791            J80              J79              80         .015       3.5        6.27       0          0         
8180             J81              J80              24         .0416      0          0          0          0         
81801            J81              J80              24         .015       4.45       3.5        0          0         
8281             J82              J81              76         .025       0          0          0          0         
82811            J82              J81              76         .015       4.74       4.45       0          0         
8382             J83              J82              68         .03        0          0          0          0         
83821            J83              J82              68         .015       4.94       4.74       0          0         
8483             J84              J83              170        .035       0          0          0          0         
8584             J85              J84              170        .035       0          0          0          0         
86850            J86              J85              20         .035       0          0          0          0         
86851            J86              J85              20         .035       0          0          0          0         
868511           J86              J85              20         .015       3.25       3.25       0          0         
8786             J87              J86              375        .035       0          0          0          0         
8887             J88              J87              48         .0215      0          0          0          0         
8988             J89              J88              100        .025       0          0          0          0         
9084             J90              J84              750        .025       0          0          0          0         
9190             J91              J90              40         .021       0          0          0          0         
2075             J20              J75              165        .025       0          0          0          0         
2120             J21              J20              24         .0482      0          0          0          0         
2221             J22              J21              48         .0215      0          6.8        0          0         
2322             J23              J22              304        .025       0          0          0          0         
2423             J24              J23              160        .025       0          0          0          0         