[TITLE]
;;Project Title/Notes

[OPTIONS]
;;Option             Value
FLOW_UNITS           CFS
INFILTRATION         HORTON
FLOW_ROUTING         DYNWAVE
LINK_OFFSETS         DEPTH
MIN_SLOPE            0
ALLOW_PONDING        NO
SKIP_STEADY_STATE    NO

IGNORE_SNOWMELT      YES
IGNORE_GROUNDWATER   YES
IGNORE_QUALITY       YES
START_DATE           01/10/2018
START_TIME           00:00:00
REPORT_START_DATE    01/10/2018
REPORT_START_TIME    00:00:00
END_DATE             01/16/2018
END_TIME             00:00:00
SWEEP_START          01/01
SWEEP_END            01/01
DRY_DAYS             5.000000
REPORT_STEP          00:05:00
WET_STEP             00:05:00
DRY_STEP             01:00:00
ROUTING_STEP         0:00:10 

INERTIAL_DAMPING     PARTIAL
NORMAL_FLOW_LIMITED  BOTH
FORCE_MAIN_EQUATION  H-W
VARIABLE_STEP        0.75
LENGTHENING_STEP     10
MIN_SURFAREA         12.557000
MAX_TRIALS           8
HEAD_TOLERANCE       0.005000
SYS_FLOW_TOL         5
LAT_FLOW_TOL         5
MINIMUM_STEP         0.500000
THREADS              1

[EVAPORATION]
;;Data Source    Parameters
;;-------------- ----------------
CONSTANT         0.000000
DRY_ONLY         NO

[RAINGAGES]
;;Name           Format    Interval SCF      Source    
;;-------------- --------- ------ ------ ----------
M03              VOLUME    0.083333 1.000000 TIMESERIES M03             
M07              VOLUME    0.083333 1.000000 TIMESERIES M07             
RG-01            VOLUME    0.083333 1.000000 TIMESERIES RG-01           
RG-02            VOLUME    0.083333 1.000000 TIMESERIES RG-02           
RG-03            VOLUME    0.083333 1.000000 TIMESERIES RG-03           
RG-04            VOLUME    0.083333 1.000000 TIMESERIES RG-04           

[SUBCATCHMENTS]
;;Name           Rain Gage        Outlet           Area     %Imperv  Width    %Slope   CurbLen  SnowPack        
;;-------------- ---------------- ---------------- -------- -------- -------- -------- -------- ----------------
004-01           M07              SWR00359782      62.288200 32.406000 981.750000 1.290000 0.000000                 
; CSO
004-02           M07              SWR00359688      29.307900 26.400000 746.330000 9.010000 0.000000                 
005-01           M07              SWR00358587      11.771200 75.000000 943.330000 12.300000 0.000000                 
005-DS           M07              SWR00358088      9.925020 30.510000 652.000000 5.830000 0.000000                 
; CSO
006-01           RG-04            SWR00439774      98.357100 58.320000 1071.000000 0.700000 0.000000                 
; CSO
006-02           RG-04            SWR00439895      201.117000 50.508000 2331.000000 0.700000 0.000000                 
; CSO
006-03           RG-04            SWR00441556      425.975000 66.132000 2794.670000 0.700000 0.000000                 
; CSO
006-04           RG-04            SWR00441733      125.444000 83.646000 2301.750000 0.590000 0.000000                 
; CSO
006-05           RG-04            SWR00385008      88.951300 75.618000 1481.000000 0.720000 0.000000                 
; CSO
006-11           RG-04            SWR00389801      54.240500 35.478000 1479.330000 0.410000 0.000000                 
; CSO
006-12           RG-04            SWR00672606      277.891000 75.780000 3230.670000 0.720000 0.000000                 
; CSO
006-13           RG-04            SWR00309902      222.365000 65.142000 2529.000000 0.280000 0.000000                 
; CSO
006-14           RG-04            SWR00311525      129.774000 59.904000 2294.670000 1.820000 0.000000                 
; CSO
006-15           RG-04            SWR00311499      197.944000 65.106000 3141.670000 0.970000 0.000000                 
; CSO
006-16           M03              SWR00317117      264.160000 59.724000 2831.500000 1.700000 0.000000                 
; CSO
006-21           RG-04            SWR00390293      143.359000 38.034000 2374.500000 0.250000 0.000000                 
; CSO
006-22           RG-04            SWR00387925      150.060000 33.138000 2089.000000 0.570000 0.000000                 
; CSO
006-23           RG-04            SWR00460953      205.329000 31.176000 2177.000000 1.350000 0.000000                 
; CSO
006-24           M03              SWR00457642      143.474000 34.902000 1819.000000 1.610000 0.000000                 
; CSO
006-25           M03              SWR00457739      44.949900 35.262000 1224.500000 2.440000 0.000000                 
; CSO
006-26           M03              SWR00670531      50.227800 35.352000 753.500000 1.530000 0.000000                 
; CSO
006-27           M03              SWR00670539      57.817100 28.566000 301.750000 2.820000 0.000000                 
; CSO
006-28           RG-04            SWR00457957      277.125000 49.248000 2806.250000 1.290000 0.000000                 
; CSO
006-29           M03              SWR00670490      114.225000 57.366000 1273.250000 0.990000 0.000000                 
; CSO
006-30           M03              SWR00407408      114.511000 18.670000 1503.670000 0.510000 0.000000                 
; CSO
006-31           M03              SWR00384370      90.591300 17.810000 1983.670000 1.790000 0.000000                 
; CSO
006-32           M03              SWR00381987      19.775000 16.100000 1682.000000 2.340000 0.000000                 
; CSO
006-33           M03              SWR00459282      155.337000 20.530000 1504.250000 1.600000 0.000000                 
; CSO
006-34           M03              SWR00459695      17.627600 24.160000 907.670000 1.850000 0.000000                 
; CSO
006-35           M03              SWR00316277      8.893090 20.240000 402.330000 3.980000 0.000000                 
; CSO
006-36           M03              SWR00687310A     106.478000 13.850000 1663.000000 1.920000 0.000000                 
; CSO
006-37           M03              SWR00360643      61.916900 12.340000 1650.500000 1.660000 0.000000                 
006-37A          M03              SWR00316274      52.350000 7.600000 820.000000 1.400000 0.000000                 
; CSO
006-38           M03              SWR00313095      178.336000 31.035000 3510.000000 2.090000 0.000000                 
; CSO
006-40           M03              SWR00363592      39.654500 23.170000 1084.750000 4.160000 0.000000                 
; CSO
006-41           M03              SWR00363692      112.821000 28.185000 1564.500000 2.310000 0.000000                 
; CSO
006-42           M03              SWR00368312      79.622200 52.935000 1292.250000 1.130000 0.000000                 
; CSO
006-43           M03              SWR00464790      150.987000 33.030000 1272.250000 2.590000 0.000000                 
; CSO
006-44           M03              SWR00464766      180.756000 55.155000 1840.500000 2.530000 0.000000                 
; CSO
006-45           M03              SWR00479804      144.606000 32.640000 2195.000000 2.630000 0.000000                 
; CSO
006-46           M07              SWR00477259      182.793000 32.640000 3900.000000 2.630000 0.000000                 
; CSO
006-47           M07              SWR00476636      22.398500 40.995000 585.330000 2.280000 0.000000                 
; CSO
006-48           M07              SWR00669709      94.613100 49.335000 1756.000000 4.990000 0.000000                 
; CSO
006-49           M07              SWR00669726B     33.405800 49.335000 890.000000 13.930000 0.000000                 
; CSO
006-50           M07              SWR00416508      195.720000 43.500000 1890.750000 1.620000 0.000000                 
; CSO
006-51           M07              SWR00416077      22.904200 74.130000 954.000000 2.400000 0.000000                 
; CSO
006-52           M07              SWR00013198      21.090000 74.130000 954.000000 2.400000 0.000000                 
; CSO
006-53           M07              SHOCKOE_MH1      100.781000 69.960000 1270.750000 4.730000 0.000000                 
; CSO
006-54           M07              17348            30.153000 75.060000 1691.000000 2.270000 0.000000                 
; CSO
006-61           M07              SWR00015366      3.644140 73.590000 386.670000 5.880000 0.000000                 
; CSO
006A-01          M03              SWR00360516      30.274300 20.330000 1170.000000 3.240000 0.000000                 
; CSO
006B-01          M03              SWR00382114      5.892660 20.170000 947.750000 9.260000 0.000000                 
; CSO
006C-01          M03              SWR00362466      24.425600 14.330000 1060.000000 2.260000 0.000000                 
; CSO
006C-02          M03              SWR00381072      34.154300 30.440000 2928.000000 3.740000 0.000000                 
; CSO
006D-01          M03              SWR00381218      100.521000 21.950000 1601.500000 1.120000 0.000000                 
; CSO
006E-01          M03              SWR00407504      54.785000 17.510000 1203.000000 0.550000 0.000000                 
; CSO
006E-02          M03              SWR00380232      99.087700 21.960000 1238.250000 1.040000 0.000000                 
; CSO
006E-03          M03              SWR00380332      87.767200 18.670000 1746.250000 1.800000 0.000000                 
; CSO
007-01           M07              SWR00322888      27.423100 48.980000 698.670000 3.630000 0.000000                 
; CSO
008-01           M07              SWR00683190      34.998000 51.760000 881.670000 2.110000 0.000000                 
; CSO
008-02           M07              SWR00323162      6.537190 35.440000 413.330000 6.190000 0.000000                 
; CSO
009-01           M07              SWR00324195      11.382100 49.740000 609.000000 6.750000 0.000000                 
; CSO
010-01           M07              SWR00324180      177.932000 44.310000 2365.250000 1.740000 0.000000                 
; CSO
010-02           M07              SWR00324183      55.875400 29.690000 1379.330000 1.740000 0.000000                 
; CSO
011-01           M07              SWR00296630      163.067000 37.000000 1801.250000 0.840000 0.000000                 
; CSO
011-02           M07              SWR00296631      49.891600 25.990000 625.750000 1.080000 0.000000                 
; CSO
011-03           M07              SWR00294408      78.356800 25.750000 603.330000 1.860000 0.000000                 
; CSO
012-01           M07              SWR00327524      89.964300 19.150000 1690.000000 1.920000 0.000000                 
012-02S          M07              SWR00327303      0.001000 0.000000 0.000000 0.000000 0.000000                 
; CSO
014-01           M07              SWR00496727      33.135000 62.625000 1212.000000 1.150000 0.000000                 
; CSO
014-02           M07              SWR00500955      30.812000 39.360000 952.670000 1.690000 0.000000                 
; CSO
014-03           M07              SWR00501021      107.871000 44.490000 1656.000000 1.400000 0.000000                 
; CSO
014-04           M07              SWR00537305      111.669000 47.985000 1299.000000 1.820000 0.000000                 
; CSO
014-05           M07              SWR00537290      45.635000 65.895000 1118.330000 1.650000 0.000000                 
; CSO
014-06           M07              SWR00539274      15.822000 72.540000 664.330000 2.780000 0.000000                 
; CSO
014-07           M07              SWR00540429      48.895000 74.040000 1082.330000 1.620000 0.000000                 
; CSO
014-08           M07              SWR00537304      11.818000 75.720000 545.670000 0.480000 0.000000                 
014-09S          M07              SWR00537290A     0.001000 0.000000 0.000000 0.000000 0.000000                 
014-10S          M07              SWR00539387      0.001000 0.000000 0.000000 0.000000 0.000000                 
; CSO
015-01           M07              SWR00496641      252.519000 15.071000 3200.500000 1.320000 0.000000                 
; CSO
015-02           M07              SWR00688652      335.001000 12.968000 3200.500000 1.320000 0.000000                 
; CSO
016-01           M07              SWR00520630      109.643000 11.239000 2013.750000 1.810000 0.000000                 
; CSO
017-01           RG-02            SWR00504289      15.379400 5.870000 699.000000 9.300000 0.000000                 
; CSO
017-02           RG-02            SWR00512716      37.451200 14.508000 418.250000 1.710000 0.000000                 
; CSO
018-01           RG-02            SWR00504874      58.059000 9.716000 1802.500000 5.780000 0.000000                 
; CSO
019-01           RG-04            SWR00666339      54.147700 39.430000 1014.330000 1.440000 0.000000                 
; CSO
019-02           RG-04            SWR00666369      19.967000 37.190000 658.670000 1.270000 0.000000                 
; CSO
019-03           RG-04            REG_DWF_19A_US   188.063000 22.270000 2018.670000 1.270000 0.000000                 
; CSO
019-04           RG-04            SWR00042421F     105.564000 17.620000 1215.000000 1.530000 0.000000                 
; CSO
019-05           RG-04            SWR00039710      30.767900 21.230000 1735.000000 2.760000 0.000000                 
; CSO
020-01           RG-04            SWR00446737B     72.575500 55.260000 3110.000000 1.590000 0.000000                 
; CSO
020-02           RG-04            SWR00434781D     77.648400 42.100000 1779.670000 1.990000 0.000000                 
; CSO
020-03           RG-04            SWR00434781B     122.553000 27.490000 2688.000000 1.680000 0.000000                 
020-03S          RG-02            SWR00434095      0.001000 0.000000 0.000000 0.000000 0.000000                 
; CSO
021-01           M07              SWR00499128      150.195000 37.560000 2446.000000 1.160000 0.000000                 
; CSO
021-02           M07              SWR00499169      56.569100 29.370000 1257.670000 1.410000 0.000000                 
; CSO
021-03           M07              SWR00501648      39.030400 37.950000 777.330000 1.960000 0.000000                 
; CSO
021-04           M07              SWR00502021      122.763000 51.570000 1826.000000 1.330000 0.000000                 
; CSO
021-05           M07              SWR00502166      109.816000 54.825000 1937.330000 4.170000 0.000000                 
; CSO
021-06           M07              SWR00356836      14.663900 64.470000 622.670000 3.650000 0.000000                 
; CSO
024-01           M07              SWR00348086      71.513400 8.470000 869.000000 1.880000 0.000000                 
; CSO
024-02           M07              SWR00350228      63.710500 8.490000 811.000000 2.870000 0.000000                 
; CSO
024-03           M07              SWR00351452      27.297100 4.810000 515.000000 5.320000 0.000000                 
; CSO
024-04           M07              SWR00351164      34.729000 2.770000 363.000000 4.190000 0.000000                 
; CSO
025-01           M07              SWR00339771      65.678400 21.260000 932.330000 0.590000 0.000000                 
; CSO
026-01           M07              SWR00351207      100.868000 15.100000 1199.250000 3.990000 0.000000                 
; CSO
028-01           M07              SWR00329051      20.273600 20.770000 260.250000 2.060000 0.000000                 
; CSO
028-02           M07              SWR00329066      33.297400 17.250000 851.750000 2.980000 0.000000                 
; CSO
028-03           M07              SWR00351463      7.333940 17.460000 486.250000 3.660000 0.000000                 
; CSO
028-04           M07              SWR00349998      27.451300 13.080000 1729.500000 13.870000 0.000000                 
; CSO
028-05           M07              SWR00349880      41.145700 17.580000 888.250000 3.510000 0.000000                 
; CSO
028-06           M07              SWR00349928      7.930120 33.880000 422.670000 1.110000 0.000000                 
; CSO
028-07           M07              SWR00349930      7.658480 23.330000 290.670000 1.330000 0.000000                 
; CSO
031-01           M03              SWR00429141      99.655200 14.476   2504.250000 2.110000 0.000000                 
; CSO
031-02           M07              SWR00346974      76.729400 14.798   2504.250000 2.110000 0.000000                 
; CSO
033-01           RG-02            SWR00270692      61.515800 11.030000 1494.000000 1.690000 0.000000                 
; CSO
034-01           M07              SWR00013163      39.023000 32.930000 505.670000 6.640000 0.000000                 
; CSO
034-02           M07              SWR00013122      23.961900 38.890000 669.330000 5.820000 0.000000                 
; CSO
035-01           M07              SWR00685127      27.636500 32.230000 914.750000 8.580000 0.000000                 
; CSO
035-02           M07              SWR00358571      3.246020 30.510000 350.000000 5.140000 0.000000                 
; CSO
039-01           M07              SWR00343016      45.632900 25.160000 1029.330000 3.390000 0.000000                 
; CSO
039-02           M07              SWR00352760      127.930000 8.152    1487.000000 3.390000 0.000000                 
BA-01            RG-03            SWR00603094      0.001000 0.000000 0.000000 0.000000 0.000000                 
BA-02            RG-03            SWR00641668      0.001000 0.000000 0.000000 0.000000 0.000000                 
BA-03            RG-03            SWR00641961      0.001000 0.000000 0.000000 0.000000 0.000000                 
BA-04            RG-03            SWR00637381      0.001000 0.000000 0.000000 0.000000 0.000000                 
BA-05            RG-03            SWR00636777      0.001000 0.000000 0.000000 0.000000 0.000000                 
BA-06            RG-03            SWR00641860      0.001000 0.000000 0.000000 0.000000 0.000000                 
BA-07            RG-03            SWR00602782      0.001000 0.000000 0.000000 0.000000 0.000000                 
BA-08            RG-02            SWR00634298      0.001000 0.000000 0.000000 0.000000 0.000000                 
BA-09            RG-02            SWR00595783      0.001000 0.000000 0.000000 0.000000 0.000000                 
BA-10            RG-02            SWR00595247      0.001000 0.000000 0.000000 0.000000 0.000000                 
BY-01            M07              SWR00322894      0.001000 0.000000 0.000000 0.000000 0.000000                 
CR-01            RG-02            SWR00597597      0.001000 0.000000 0.000000 0.000000 0.000000                 
CR-02            RG-02            SWR00597917      0.001000 0.000000 0.000000 0.000000 0.000000                 
CR-03            RG-02            SWR00597949      0.001000 0.000000 0.000000 0.000000 0.000000                 
CR-04            RG-02            SWR00571742      0.001000 0.000000 0.000000 0.000000 0.000000                 
CR-05            RG-02            SWR00576493      0.001000 0.000000 0.000000 0.000000 0.000000                 
CR-06            RG-02            SWR00601823      0.001000 0.000000 0.000000 0.000000 0.000000                 
CR-07            RG-02            SWR00529591      0.001000 0.000000 0.000000 0.000000 0.000000                 
CR-08            RG-02            SWR00516531      0.001000 0.000000 0.000000 0.000000 0.000000                 
CR-09            RG-02            SWR00512674      0.001000 0.000000 0.000000 0.000000 0.000000                 
CR-10            RG-02            SWR00504238      0.001000 0.000000 0.000000 0.000000 0.000000                 
CR-11            M07              SWR00520952      0.001000 0.000000 0.000000 0.000000 0.000000                 
F-LG2-01         RG-01            SWR00523517      0.001000 0.000000 0.000000 0.000000 0.000000                 
F-LG2-02         RG-01            SWR00496868      0.001000 0.000000 0.000000 0.000000 0.000000                 
F-LG2-03         RG-01            SWR00510494      0.001000 0.000000 0.000000 0.000000 0.000000                 
F-LG2-04         RG-01            SWR00544243      0.001000 0.000000 0.000000 0.000000 0.000000                 
F-LG2-05         RG-01            SWR00541840      0.001000 0.000000 0.000000 0.000000 0.000000                 
F-LG2-06         RG-01            SWR00549393      0.001000 0.000000 0.000000 0.000000 0.000000                 
F-LG2-07         RG-01            SWR00542257      0.001000 0.000000 0.000000 0.000000 0.000000                 
F-LG2-08         RG-01            SWR00526474      0.001000 0.000000 0.000000 0.000000 0.000000                 
FROMCOUNTYCF-1   RG-03            SWR00646832      0.001000 0.000000 0.000000 0.000000 0.000000                 
FROMCOUNTYCF-2   RG-03            SWR00637008      0.001000 0.000000 0.000000 0.000000 0.000000                 
FROMCOUNTYCF-3   RG-03            SWR00624871      0.001000 0.000000 0.000000 0.000000 0.000000                 
FROMCOUNTYHC-01  RG-04            SWR00442767      0.001000 0.000000 0.000000 0.000000 0.000000                 
FROMCOUNTYHC-02  RG-04            SWR00377290      0.001000 0.000000 0.000000 0.000000 0.000000                 
FROMCOUNTYHC-03  RG-04            SWR00436988      0.001000 0.000000 0.000000 0.000000 0.000000                 
FROMCOUNTYHC-04  RG-04            SWR00425435      0.001000 0.000000 0.000000 0.000000 0.000000                 
FROMCOUNTYHC-05  M03              SWR00407172      0.001000 0.000000 0.000000 0.000000 0.000000                 
; CSO
FROMCOUNTYHC-11  M03              SWR00407411      110.712000 16.200000 2000.000000 0.150000 0.000000                 
; CSO
FROMCOUNTYHC-12  M03              SWR00407441      59.031000 16.200000 1295.000000 1.070000 0.000000                 
; CSO
FROMCOUNTYHC-13  M03              SWR00404828      0.001000 0.000000 0.000000 0.000000 0.000000                 
; CSO
FROMCOUNTYHC-14  M03              2883             686.932000 36.000000 7120.000000 1.200000 0.000000                 
; CSO
FROMCOUNTYHC-15  M03              2879             88.034600 30.000000 2500.000000 2.800000 0.000000                 
; CSO
FROMCOUNTYHC-16  M03              2879             64.819400 42.000000 1750.000000 0.600000 0.000000                 
; CSO
FROMCOUNTYHC-17  M03              SWR00356524      33.216400 9.000000 1883.000000 3.300000 0.000000                 
; CSO
FROMCOUNTYHC-18  M03              27357            48.810800 42.000000 600.000000 4.770000 0.000000                 
; CSO
FROMCOUNTYHC-19  M03              SWR00362466      8.877750 30.000000 683.000000 1.760000 0.000000                 
GLC-07           M07              SWR00339749      0.001000 0.000000 0.000000 0.000000 0.000000                 
GLC-08           M07              SWR00342774      0.001000 0.000000 0.000000 0.000000 0.000000                 
GLC-09-S         M07              SWR00326376      0.001000 0.000000 0.000000 0.000000 0.000000                 
GLC-13           M07              SWR00349793      0.001000 0.000000 0.000000 0.000000 0.000000                 
GLC-15           M07              SWR00685294      0.001000 0.000000 0.000000 0.000000 0.000000                 
GLC-16           M07              SWR00349909      0.001000 0.000000 0.000000 0.000000 0.000000                 
GLC-17           M07              SWR00358106      0.001000 0.000000 0.000000 0.000000 0.000000                 
LG-01            RG-01            SWR00558873      0.001000 0.000000 0.000000 0.000000 0.000000                 
LG-02            RG-01            SWR00558664      0.001000 0.000000 0.000000 0.000000 0.000000                 
LG-03            RG-01            SWR00570962      0.001000 0.000000 0.000000 0.000000 0.000000                 
LG-04            RG-01            SWR00585420      0.001000 0.000000 0.000000 0.000000 0.000000                 
LG-05            RG-01            SWR00582260      0.001000 0.000000 0.000000 0.000000 0.000000                 
LG-06            RG-01            SWR00564876      0.001000 0.000000 0.000000 0.000000 0.000000                 
LG-07            RG-01            SWR00564445      0.001000 0.000000 0.000000 0.000000 0.000000                 
LG-08            RG-01            SWR00574562      0.001000 0.000000 0.000000 0.000000 0.000000                 
LG-09            RG-01            SWR00017510      0.001000 0.000000 0.000000 0.000000 0.000000                 
LG-10            RG-01            SWR00583646      0.001000 0.000000 0.000000 0.000000 0.000000                 
LG-11            RG-01            SWR00592052      0.001000 0.000000 0.000000 0.000000 0.000000                 
LG-12            RG-01            SWR00516730      0.001000 0.000000 0.000000 0.000000 0.000000                 
NS-02            RG-04            SWR00482596      0.001000 0.000000 0.000000 0.000000 0.000000                 
NS-04            RG-04            SWR00484948      0.001000 0.000000 0.000000 0.000000 0.000000                 
NS-05            RG-04            SWR00425437      0.001000 0.000000 0.000000 0.000000 0.000000                 
RC-CF-RC-1       RG-03            SWR00624871      0.001000 0.000000 0.000000 0.000000 0.000000                 
RC-CF-RC-2       RG-03            SWR00624871      0.001000 0.000000 0.000000 0.000000 0.000000                 
RC-CF-RC-3       RG-03            SWR00624871      0.001000 0.000000 0.000000 0.000000 0.000000                 
RC-HC-RC         RG-04            UPHAMBROOK_WW    0.001000 0.000000 0.000000 0.000000 0.000000                 
SH-03-S          RG-04            SWR00389507      0.001000 0.000000 0.000000 0.000000 0.000000                 
; CSO
SH-12B           M03              SWR00407401      63.854200 17.940000 1009.670000 0.510000 0.000000                 
SH-13A           M07              SWR00015401      0.001000 0.000000 0.000000 0.000000 0.000000                 
; CSO
SH-CK1           M03              2883             117.144000 26.820000 2106.000000 4.700000 0.000000                 
; CSO
SH-CK2           M03              2873             45.362400 26.800000 1124.670000 9.260000 0.000000                 
; CSO
SH-CK3           M03              27357            47.106000 42.000000 650.000000 4.770000 0.000000                 
; CSO
SH-CK4           M03              SHOCKOECLEAN_23  108.109000 28.660000 3000.000000 3.400000 0.000000                 
SP-01            RG-03            SWR00646830      0.001000 0.000000 0.000000 0.000000 0.000000                 
SP-02            RG-03            SWR00623484      0.001000 0.000000 0.000000 0.000000 0.000000                 
SP-03            RG-03            SWR00623699      0.001000 0.000000 0.000000 0.000000 0.000000                 
SP-04            RG-03            SWR00603204      0.001000 0.000000 0.000000 0.000000 0.000000                 
SP-05            RG-03            SWR00660594      0.001000 0.000000 0.000000 0.000000 0.000000                 
TOCOUNTYCF1      RG-01            DUMMY2           0.001000 0.000000 0.000000 0.000000 0.000000                 
TOCOUNTYCF2      RG-01            DUMMY2           0.001000 0.000000 0.000000 0.000000 0.000000                 
TOCOUNTYCF3      RG-01            DUMMY2           0.001000 0.000000 0.000000 0.000000 0.000000                 
TOCOUNTYHC1      RG-03            DUMMY6           0.001000 0.000000 0.000000 0.000000 0.000000                 
TOCOUNTYHC2      RG-03            DUMMY6           0.001000 0.000000 0.000000 0.000000 0.000000                 
TOCOUNTYHC3      M03              DUMMY7           0.001000 0.000000 0.000000 0.000000 0.000000                 
TOCOUNTYHC4      RG-02            DUMMY6           0.001000 0.000000 0.000000 0.000000 0.000000                 
TOCOUNTYHC5      RG-04            DUMMY3           0.001000 0.000000 0.000000 0.000000 0.000000                 
WE1-01           RG-04            SWR00355458      0.001000 0.000000 0.000000 0.000000 0.000000                 
WE1-02           RG-04            SWR00468903      0.001000 0.000000 0.000000 0.000000 0.000000                 
WE1-03           RG-04            SWR00469935      0.001000 0.000000 0.000000 0.000000 0.000000                 
WE1-04           RG-04            SWR00470187      0.001000 0.000000 0.000000 0.000000 0.000000                 
WE1-05           RG-04            SWR00469955      0.001000 0.000000 0.000000 0.000000 0.000000                 
WE1-06           RG-04            SWR00486450      0.001000 0.000000 0.000000 0.000000 0.000000                 
WE1-07           RG-04            SWR00454208      0.001000 0.000000 0.000000 0.000000 0.000000                 
WE1-08           RG-02            SWR00668613      0.001000 0.000000 0.000000 0.000000 0.000000                 
WE1-09           RG-04            SWR00449667      0.001000 0.000000 0.000000 0.000000 0.000000                 
WE2-01           RG-04            SWR00442817      0.001000 0.000000 0.000000 0.000000 0.000000                 
WE2-02           RG-04            SWR00442781      0.001000 0.000000 0.000000 0.000000 0.000000                 
WH-01            RG-02            SWR00624895      0.001000 0.000000 0.000000 0.000000 0.000000                 
WH-02            RG-02            SWR00667164      0.001000 0.000000 0.000000 0.000000 0.000000                 
WH-03            RG-02            SWR00615410      0.001000 0.000000 0.000000 0.000000 0.000000                 
WH-04            RG-02            SWR00615923      0.001000 0.000000 0.000000 0.000000 0.000000                 
WH-05            RG-02            SWR00615367      0.001000 0.000000 0.000000 0.000000 0.000000                 
WH-06            RG-02            SWR00561929      0.001000 0.000000 0.000000 0.000000 0.000000                 
WH-07            RG-02            SWR00544411      0.001000 0.000000 0.000000 0.000000 0.000000                 
WH-08            RG-02            SWR00504835      0.001000 0.000000 0.000000 0.000000 0.000000                 
WH-09            RG-02            SWR00505010      0.001000 0.000000 0.000000 0.000000 0.000000                 

[SUBAREAS]