[TITLE]
;;Project Title/Notes

[OPTIONS]
;;Option             Value
FLOW_UNITS           GPM
INFILTRATION         CURVE_NUMBER
FLOW_ROUTING         DYNWAVE
LINK_OFFSETS         DEPTH
MIN_SLOPE            0
ALLOW_PONDING        YES
SKIP_STEADY_STATE    NO

IGNORE_SNOWMELT      YES
IGNORE_GROUNDWATER   YES
IGNORE_QUALITY       YES
START_DATE           04/30/2015
START_TIME           20:00:00
REPORT_START_DATE    04/30/2015
REPORT_START_TIME    20:00:00
END_DATE             05/02/2015
END_TIME             00:00:00
SWEEP_START          01/01
SWEEP_END            12/31
DRY_DAYS             5.000000
REPORT_STEP          00:01:00
WET_STEP             00:02:00
DRY_STEP             00:02:00
ROUTING_STEP         0:00:30 

INERTIAL_DAMPING     NONE
NORMAL_FLOW_LIMITED  BOTH
FORCE_MAIN_EQUATION  H-W
VARIABLE_STEP        0.75
LENGTHENING_STEP     15
MIN_SURFAREA         0
MAX_TRIALS           6
HEAD_TOLERANCE       0.000100
SYS_FLOW_TOL         5
LAT_FLOW_TOL         5
MINIMUM_STEP         0
THREADS              1

[EVAPORATION]
;;Data Source    Parameters
;;-------------- ----------------
CONSTANT         0.0
DRY_ONLY         NO

[RAINGAGES]
;;Name           Format    Interval SCF      Source    
;;-------------- --------- ------ ------ ----------
; New Raingage
RAINGAGE-1       CUMULATIVE 0.016700 1.000000 TIMESERIES 10YR_60MIN      

[SUBCATCHMENTS]
;;Name           Rain Gage        Outlet           Area     %Imperv  Width    %Slope   CurbLen  SnowPack        
;;-------------- ---------------- ---------------- -------- -------- -------- -------- -------- ----------------
P_SUB-10_0A      RAINGAGE-1       10_0A            13.329800 0.000000 500.000000 0.500000 0.000000                 
P_SUB-10_0X      RAINGAGE-1       10_0             5.695300 0.000000 500.000000 0.500000 0.000000                 
P_SUB-10_0Y      RAINGAGE-1       10_0             9.277000 0.000000 500.000000 0.500000 0.000000                 
P_SUB-10_1A      RAINGAGE-1       10_1A            7.380500 0.000000 500.000000 0.500000 0.000000                 
P_SUB-10_3       RAINGAGE-1       10_3             0.259100 0.000000 500.000000 0.500000 0.000000                 
P_SUB-11_0X      RAINGAGE-1       11_0             0.210900 0.000000 500.000000 0.500000 0.000000                 
P_SUB-11_0Y      RAINGAGE-1       11_0             3.823600 0.000000 500.000000 0.500000 0.000000                 
P_SUB-11_1       RAINGAGE-1       11_1             0.001000 0.000000 500.000000 0.500000 0.000000                 
P_SUB-11_2       RAINGAGE-1       11_2             0.163400 0.000000 500.000000 0.500000 0.000000                 
P_SUB-12_0       RAINGAGE-1       12_1             0.001000 0.000000 500.000000 0.500000 0.000000                 
P_SUB-12_1       RAINGAGE-1       12_1             0.001000 0.000000 500.000000 0.500000 0.000000                 
P_SUB-12_2       RAINGAGE-1       12_2             1.698200 0.000000 500.000000 0.500000 0.000000                 
P_SUB-12_3       RAINGAGE-1       12_3             2.998900 0.000000 500.000000 0.500000 0.000000                 
P_SUB-12_4       RAINGAGE-1       12_4             0.115900 0.000000 500.000000 0.500000 0.000000                 
P_SUB-13_0       RAINGAGE-1       13_0             2.963900 0.000000 500.000000 0.500000 0.000000                 
P_SUB-15_0X      RAINGAGE-1       15_0             8.498500 0.000000 500.000000 0.500000 0.000000                 
P_SUB-15_0Y      RAINGAGE-1       15_0             13.674000 0.000000 500.000000 0.500000 0.000000                 
P_SUB-15_1       RAINGAGE-1       15_1_1           11.044600 0.000000 500.000000 0.500000 0.000000                 
P_SUB-15_2       RAINGAGE-1       L15_2            0.135300 0.000000 500.000000 0.500000 0.000000                 
P_SUB-16_0       RAINGAGE-1       600_NORTH        31.423400 0.000000 500.000000 0.500000 0.000000                 
P_SUB-17_0       RAINGAGE-1       17_0             2.527600 0.000000 500.000000 0.500000 0.000000                 
P_SUB-1_0BX      RAINGAGE-1       1_0B             18.338500 0.000000 500.000000 0.500000 0.000000                 
P_SUB-1_0BY      RAINGAGE-1       1_0B             33.654600 0.000000 500.000000 0.500000 0.000000                 
P_SUB-1_0X       RAINGAGE-1       1_0              17.938900 0.000000 500.000000 0.500000 0.000000                 
P_SUB-1_0Y       RAINGAGE-1       1_0              28.618800 0.000000 500.000000 0.500000 0.000000                 
P_SUB-1_0Z       RAINGAGE-1       1_0              2.694700 0.000000 500.000000 0.500000 0.000000                 
P_SUB-1_10       RAINGAGE-1       1_10             16.140500 0.000000 500.000000 0.500000 0.000000                 
P_SUB-1_12       RAINGAGE-1       1_12             27.247400 0.000000 500.000000 0.500000 0.000000                 
P_SUB-1_14A      RAINGAGE-1       1_14A            32.849400 0.000000 500.000000 0.500000 0.000000                 
P_SUB-1_15X      RAINGAGE-1       1_15             8.850800 0.000000 500.000000 0.500000 0.000000                 
P_SUB-1_15Y      RAINGAGE-1       1_15             6.175800 0.000000 500.000000 0.500000 0.000000                 
P_SUB-1_16       RAINGAGE-1       1_16             0.701900 0.000000 500.000000 0.500000 0.000000                 
P_SUB-1_17       RAINGAGE-1       1_17             4.880700 0.000000 500.000000 0.500000 0.000000                 
P_SUB-1_20       RAINGAGE-1       1_20             0.521800 0.000000 500.000000 0.500000 0.000000                 
P_SUB-1_20B      RAINGAGE-1       1_20B            7.853700 0.000000 500.000000 0.500000 0.000000                 
P_SUB-1_21       RAINGAGE-1       1_21             16.675900 0.000000 500.000000 0.500000 0.000000                 
P_SUB-1_22A      RAINGAGE-1       1_22A            11.246800 0.000000 500.000000 0.500000 0.000000                 
P_SUB-1_23       RAINGAGE-1       1_23             3.349500 0.000000 500.000000 0.500000 0.000000                 
P_SUB-1_24       RAINGAGE-1       1_24             2.335600 0.000000 500.000000 0.500000 0.000000                 
P_SUB-1_25X      RAINGAGE-1       1_25             6.424500 0.000000 500.000000 0.500000 0.000000                 
P_SUB-1_25Y      RAINGAGE-1       1_25             4.886500 0.000000 500.000000 0.500000 0.000000                 
P_SUB-1_26       RAINGAGE-1       17_1             1.954800 0.000000 500.000000 0.500000 0.000000                 
P_SUB-1_28       RAINGAGE-1       1_28             14.249000 0.000000 500.000000 0.500000 0.000000                 
P_SUB-1_29       RAINGAGE-1       1_29             2.673200 0.000000 500.000000 0.500000 0.000000                 
P_SUB-1_31       RAINGAGE-1       1_31             2.098500 0.000000 500.000000 0.500000 0.000000                 
P_SUB-1_4X       RAINGAGE-1       1_4              4.347800 0.000000 500.000000 0.500000 0.000000                 
P_SUB-1_4Y       RAINGAGE-1       1_4              16.829300 0.000000 500.000000 0.500000 0.000000                 
P_SUB-1_5        RAINGAGE-1       1_5              24.438700 0.000000 500.000000 0.500000 0.000000                 
P_SUB-1_6        RAINGAGE-1       1_6              6.411100 0.000000 500.000000 0.500000 0.000000                 
P_SUB-1_7        RAINGAGE-1       1_7              12.869100 0.000000 500.000000 0.500000 0.000000                 
P_SUB-1_8        RAINGAGE-1       1_8              16.205200 0.000000 500.000000 0.500000 0.000000                 
P_SUB-1_9        RAINGAGE-1       1_9              24.157900 0.000000 500.000000 0.500000 0.000000                 
P_SUB-200S_0     RAINGAGE-1       STOR-16          29.308500 0.000000 500.000000 0.500000 0.000000                 
P_SUB-200S_1     RAINGAGE-1       STOR-18          47.674600 0.000000 500.000000 0.500000 0.000000                 
P_SUB-200S_10    RAINGAGE-1       200S_10          2.594300 0.000000 500.000000 0.500000 0.000000                 
P_SUB-200S_11P   RAINGAGE-1       200S_11P         0.941400 0.000000 500.000000 0.500000 0.000000                 
P_SUB-200S_2     RAINGAGE-1       1025E_200S       27.745100 0.000000 500.000000 0.500000 0.000000                 
P_SUB-200S_3     RAINGAGE-1       900E_200S        14.686400 0.000000 500.000000 0.500000 0.000000                 
P_SUB-200S_4     RAINGAGE-1       200S_4           5.274000 0.000000 500.000000 0.500000 0.000000                 
P_SUB-200S_5     RAINGAGE-1       200S_6           0.382500 0.000000 500.000000 0.500000 0.000000                 
P_SUB-200S_6     RAINGAGE-1       200S_6           0.001000 0.000000 500.000000 0.500000 0.000000                 
P_SUB-200S_7     RAINGAGE-1       200S_7           0.001000 0.000000 500.000000 0.500000 0.000000                 
P_SUB-200S_8     RAINGAGE-1       200S_8           0.007300 0.000000 500.000000 0.500000 0.000000                 
P_SUB-200S_9     RAINGAGE-1       200S_9           0.556200 0.000000 500.000000 0.500000 0.000000                 
P_SUB-28_01      RAINGAGE-1       28_01            2.830600 0.000000 500.000000 0.500000 0.000000                 
P_SUB-28_02      RAINGAGE-1       28_02            0.729100 0.000000 500.000000 0.500000 0.000000                 
P_SUB-28_03      RAINGAGE-1       28_03            0.130400 0.000000 500.000000 0.500000 0.000000                 
P_SUB-28_2       RAINGAGE-1       28_2             0.294200 0.000000 500.000000 0.500000 0.000000                 
P_SUB-28_3       RAINGAGE-1       28_3             1.090200 0.000000 500.000000 0.500000 0.000000                 
P_SUB-28_4X      RAINGAGE-1       28_4             0.136400 0.000000 500.000000 0.500000 0.000000                 
P_SUB-28_4Y      RAINGAGE-1       28_4             0.006600 0.000000 500.000000 0.500000 0.000000                 
P_SUB-28_5X      RAINGAGE-1       28_5             3.143400 0.000000 500.000000 0.500000 0.000000                 
P_SUB-28_5Y      RAINGAGE-1       28_5             9.179900 0.000000 500.000000 0.500000 0.000000                 
P_SUB-2_0        RAINGAGE-1       2_0              5.983800 0.000000 500.000000 0.500000 0.000000                 
P_SUB-2_1        RAINGAGE-1       2_1              8.539200 0.000000 500.000000 0.500000 0.000000                 
P_SUB-2_1A       RAINGAGE-1       2_1A             21.795000 0.000000 500.000000 0.500000 0.000000                 
P_SUB-2_3X       RAINGAGE-1       2_3              31.609000 0.000000 500.000000 0.500000 0.000000                 
P_SUB-2_3Y       RAINGAGE-1       2_3              18.370200 0.000000 500.000000 0.500000 0.000000                 
P_SUB-2_4        RAINGAGE-1       2_4              5.971300 0.000000 500.000000 0.500000 0.000000                 
P_SUB-2_5        RAINGAGE-1       2_5              33.475800 0.000000 500.000000 0.500000 0.000000                 
P_SUB-3_0        RAINGAGE-1       3_0              5.569200 0.000000 500.000000 0.500000 0.000000                 
P_SUB-3_1        RAINGAGE-1       3_1              4.465700 0.000000 500.000000 0.500000 0.000000                 
P_SUB-4_0        RAINGAGE-1       4_0              16.284200 0.000000 500.000000 0.500000 0.000000                 
P_SUB-4_1        RAINGAGE-1       4_1              8.208900 0.000000 500.000000 0.500000 0.000000                 
P_SUB-4_2        RAINGAGE-1       4_2              7.519100 0.000000 500.000000 0.500000 0.000000                 
P_SUB-4_3        RAINGAGE-1       4_3              10.451700 0.000000 500.000000 0.500000 0.000000                 
P_SUB-4_5        RAINGAGE-1       4_5              21.241400 0.000000 500.000000 0.500000 0.000000                 
P_SUB-5_0        RAINGAGE-1       5_0_             48.438800 0.000000 500.000000 0.500000 0.000000                 
P_SUB-5_2        RAINGAGE-1       5_2              5.718300 0.000000 500.000000 0.500000 0.000000                 
P_SUB-6_0        RAINGAGE-1       6_0              6.930100 0.000000 500.000000 0.500000 0.000000                 
P_SUB-6_2        RAINGAGE-1       6_2              23.072900 0.000000 500.000000 0.500000 0.000000                 
P_SUB-6_2B       RAINGAGE-1       6_2B             18.170400 0.000000 500.000000 0.500000 0.000000                 
P_SUB-7_0        RAINGAGE-1       7_0              14.348200 0.000000 500.000000 0.500000 0.000000                 
P_SUB-7_1        RAINGAGE-1       7_1              15.557500 0.000000 500.000000 0.500000 0.000000                 
P_SUB-8_0        RAINGAGE-1       8_0              24.527300 0.000000 500.000000 0.500000 0.000000                 
P_SUB-8_1        RAINGAGE-1       8_1              3.601100 0.000000 500.000000 0.500000 0.000000                 
P_SUB-8_4C       RAINGAGE-1       8_4C             16.675600 0.000000 500.000000 0.500000 0.000000                 
P_SUB-8_5        RAINGAGE-1       8_5              0.283000 0.000000 500.000000 0.500000 0.000000                 
P_SUB-8_7        RAINGAGE-1       8_7              3.151100 0.000000 500.000000 0.500000 0.000000                 
P_SUB-9_3        RAINGAGE-1       9_3              8.600400 0.000000 500.000000 0.500000 0.000000                 
P_SUB-9_6        RAINGAGE-1       9_6              10.514900 0.000000 500.000000 0.500000 0.000000                 
P_SUB-L10_0      RAINGAGE-1       L10_0            29.038900 0.000000 500.000000 0.500000 0.000000                 
P_SUB-L10_0B     RAINGAGE-1       L10_0B           4.886100 0.000000 500.000000 0.500000 0.000000                 
P_SUB-L10_1      RAINGAGE-1       L10_1            4.732900 0.000000 500.000000 0.500000 0.000000                 
P_SUB-L10_1A     RAINGAGE-1       L10_1A           18.479600 0.000000 500.000000 0.500000 0.000000                 
P_SUB-L10_2      RAINGAGE-1       L10_2            3.314100 0.000000 500.000000 0.500000 0.000000                 
P_SUB-L10_2A     RAINGAGE-1       L10_2A           7.893800 0.000000 500.000000 0.500000 0.000000                 
P_SUB-L10_2B     RAINGAGE-1       L10_2B           2.774600 0.000000 500.000000 0.500000 0.000000                 
P_SUB-L10_2C     RAINGAGE-1       L10_2C           9.988400 0.000000 500.000000 0.500000 0.000000                 
P_SUB-L10_2D     RAINGAGE-1       L10_2D           11.730000 0.000000 500.000000 0.500000 0.000000                 
P_SUB-L10_3      RAINGAGE-1       L10_3            3.551200 0.000000 500.000000 0.500000 0.000000                 
P_SUB-L10_3A     RAINGAGE-1       L10_3A           6.352300 0.000000 500.000000 0.500000 0.000000                 
P_SUB-L10_5      RAINGAGE-1       L10_5            4.918800 0.000000 500.000000 0.500000 0.000000                 
P_SUB-L11_11     RAINGAGE-1       L11_11           0.004100 0.000000 500.000000 0.500000 0.000000                 
P_SUB-L11_12     RAINGAGE-1       L11_12           0.473600 0.000000 500.000000 0.500000 0.000000                 
P_SUB-L11_13     RAINGAGE-1       L11_13           0.139900 0.000000 500.000000 0.500000 0.000000                 
P_SUB-L11_14     RAINGAGE-1       L11_14           0.929100 0.000000 500.000000 0.500000 0.000000                 
P_SUB-L11_3      RAINGAGE-1       L11_3            0.013200 0.000000 500.000000 0.500000 0.000000                 
P_SUB-L11_9      RAINGAGE-1       L11_9            0.032100 0.000000 500.000000 0.500000 0.000000                 
P_SUB-L12_15     RAINGAGE-1       L12_15           0.788800 0.000000 500.000000 0.500000 0.000000                 
P_SUB-L12_17     RAINGAGE-1       L12_17           2.081900 0.000000 500.000000 0.500000 0.000000                 
P_SUB-L12_20     RAINGAGE-1       L12_20           3.225000 0.000000 500.000000 0.500000 0.000000                 
P_SUB-L12_20C    RAINGAGE-1       L12_20C          3.952100 0.000000 500.000000 0.500000 0.000000                 
P_SUB-L12_21     RAINGAGE-1       L12_21           15.114500 0.000000 500.000000 0.500000 0.000000                 
P_SUB-L12_6      RAINGAGE-1       L12_6            0.214200 0.000000 500.000000 0.500000 0.000000                 
P_SUB-L13_0      RAINGAGE-1       L13_0            1.088300 0.000000 500.000000 0.500000 0.000000                 
P_SUB-L13_1      RAINGAGE-1       L13_1            2.869100 0.000000 500.000000 0.500000 0.000000                 
P_SUB-L14_0      RAINGAGE-1       L14_0            0.592700 0.000000 500.000000 0.500000 0.000000                 
P_SUB-L14_1      RAINGAGE-1       L14_1            0.275100 0.000000 500.000000 0.500000 0.000000                 
P_SUB-L14_2      RAINGAGE-1       L14_2            0.373400 0.000000 500.000000 0.500000 0.000000                 
P_SUB-L15_3      RAINGAGE-1       L15_3            0.097200 0.000000 500.000000 0.500000 0.000000                 
P_SUB-L15_4      RAINGAGE-1       L15_4            0.105000 0.000000 500.000000 0.500000 0.000000                 
P_SUB-L15_5      RAINGAGE-1       L15_5            0.040200 0.000000 500.000000 0.500000 0.000000                 
P_SUB-L16_1      RAINGAGE-1       L16_1            1.598700 0.000000 500.000000 0.500000 0.000000                 
P_SUB-L17_0      RAINGAGE-1       L17_0            6.323600 0.000000 500.000000 0.500000 0.000000                 
P_SUB-L18_0      RAINGAGE-1       L18_0            15.560500 0.000000 500.000000 0.500000 0.000000                 
P_SUB-L19_0      RAINGAGE-1       L19_0            0.036900 0.000000 500.000000 0.500000 0.000000                 
P_SUB-L19_1      RAINGAGE-1       L19_1            1.441900 0.000000 500.000000 0.500000 0.000000                 
P_SUB-L1_0       RAINGAGE-1       L1_0             13.194000 0.000000 500.000000 0.500000 0.000000                 
P_SUB-L1_1       RAINGAGE-1       L1_1             2.754600 0.000000 500.000000 0.500000 0.000000                 
P_SUB-L1_11      RAINGAGE-1       L1_11            0.099100 0.000000 500.000000 0.500000 0.000000                 
P_SUB-L1_11A     RAINGAGE-1       L1_11A           4.570900 0.000000 500.000000 0.500000 0.000000                 
P_SUB-L1_11B     RAINGAGE-1       L1_11B           0.067500 0.000000 500.000000 0.500000 0.000000                 
P_SUB-L1_13      RAINGAGE-1       L1_13            2.910100 0.000000 500.000000 0.500000 0.000000                 
P_SUB-L1_14AX    RAINGAGE-1       L1_14A           0.211600 0.000000 500.000000 0.500000 0.000000                 
P_SUB-L1_14AY    RAINGAGE-1       L1_14A           3.611500 0.000000 500.000000 0.500000 0.000000                 
P_SUB-L1_15      RAINGAGE-1       L1_15            0.072000 0.000000 500.000000 0.500000 0.000000                 
P_SUB-L1_15A     RAINGAGE-1       L1_15A           0.007900 0.000000 500.000000 0.500000 0.000000                 
P_SUB-L1_15B     RAINGAGE-1       L1_15B           1.171600 0.000000 500.000000 0.500000 0.000000                 
P_SUB-L1_18A     RAINGAGE-1       L1_18A           3.273700 0.000000 500.000000 0.500000 0.000000                 
P_SUB-L1_2       RAINGAGE-1       L1_2             0.966300 0.000000 500.000000 0.500000 0.000000                 
P_SUB-L1_4       RAINGAGE-1       L1_4             0.350800 0.000000 500.000000 0.500000 0.000000                 
P_SUB-L1_5       RAINGAGE-1       L1_5             0.335300 0.000000 500.000000 0.500000 0.000000                 
P_SUB-L1_6       RAINGAGE-1       L1_6             0.162600 0.000000 500.000000 0.500000 0.000000                 
P_SUB-L1_7       RAINGAGE-1       L1_5             0.689200 0.000000 500.000000 0.500000 0.000000                 
P_SUB-L1_8       RAINGAGE-1       L1_8             2.145400 0.000000 500.000000 0.500000 0.000000                 
P_SUB-L1_9       RAINGAGE-1       L1_9             4.328100 0.000000 500.000000 0.500000 0.000000                 
P_SUB-L1_9BV     RAINGAGE-1       L1_9B            2.083900 0.000000 500.000000 0.500000 0.000000                 
P_SUB-L1_9BX     RAINGAGE-1       L1_9B            0.389900 0.000000 500.000000 0.500000 0.000000                 
P_SUB-L1_9BY     RAINGAGE-1       L1_9B            0.615800 0.000000 500.000000 0.500000 0.000000                 
P_SUB-L1_9BZ     RAINGAGE-1       JCT-2062         4.149100 0.000000 500.000000 0.500000 0.000000                 
P_SUB-L20_0      RAINGAGE-1       L20_0            6.273100 0.000000 500.000000 0.500000 0.000000                 
P_SUB-L21_0      RAINGAGE-1       L21_0            10.086500 0.000000 500.000000 0.500000 0.000000                 
P_SUB-L22_0      RAINGAGE-1       L22_0            10.166000 0.000000 500.000000 0.500000 0.000000                 
P_SUB-L22_1      RAINGAGE-1       L22_1            10.686700 0.000000 500.000000 0.500000 0.000000                 
P_SUB-L22_5      RAINGAGE-1       L22_5            0.276000 0.000000 500.000000 0.500000 0.000000                 
P_SUB-L22_6      RAINGAGE-1       L22_6            0.229300 0.000000 500.000000 0.500000 0.000000                 
P_SUB-L23_1      RAINGAGE-1       L23_1            0.004400 0.000000 500.000000 0.500000 0.000000                 
P_SUB-L24_0      RAINGAGE-1       L24_0            0.932000 0.000000 500.000000 0.500000 0.000000                 
P_SUB-L24_1      RAINGAGE-1       L24_1            2.211300 0.000000 500.000000 0.500000 0.000000                 
P_SUB-L24_2      RAINGAGE-1       MS_TECHNOLOGIES  2.642700 0.000000 500.000000 0.500000 0.000000                 
P_SUB-L24_3      RAINGAGE-1       L24_3            0.212500 0.000000 500.000000 0.500000 0.000000                 
P_SUB-L24_4      RAINGAGE-1       L24_4            4.371200 0.000000 500.000000 0.500000 0.000000                 
P_SUB-L24_5      RAINGAGE-1       L24_5            2.070300 0.000000 500.000000 0.500000 0.000000                 
P_SUB-L25_0      RAINGAGE-1       L25_0            0.731500 0.000000 500.000000 0.500000 0.000000                 
P_SUB-L25_2      RAINGAGE-1       L25_2            0.968400 0.000000 500.000000 0.500000 0.000000                 
P_SUB-L25_3      RAINGAGE-1       L25_3            0.119400 0.000000 500.000000 0.500000 0.000000                 
P_SUB-L25_4      RAINGAGE-1       L25_4            1.553400 0.000000 500.000000 0.500000 0.000000                 
P_SUB-L25_5      RAINGAGE-1       L25_5            5.073500 0.000000 500.000000 0.500000 0.000000                 
P_SUB-L2_0       RAINGAGE-1       L2_0             3.405300 0.000000 500.000000 0.500000 0.000000                 
P_SUB-L2_0A      RAINGAGE-1       L2_0A            0.096200 0.000000 500.000000 0.500000 0.000000                 
P_SUB-L2_0B      RAINGAGE-1       L2_0B            0.117400 0.000000 500.000000 0.500000 0.000000                 
P_SUB-L2_0D      RAINGAGE-1       L2_0D            0.092400 0.000000 500.000000 0.500000 0.000000                 
P_SUB-L2_0H      RAINGAGE-1       L2_0H            0.416200 0.000000 500.000000 0.500000 0.000000                 
P_SUB-L2_0I      RAINGAGE-1       L2_0I            0.061500 0.000000 500.000000 0.500000 0.000000                 
P_SUB-L2_0J      RAINGAGE-1       L2_0J            0.371400 0.000000 500.000000 0.500000 0.000000                 
P_SUB-L2_0L      RAINGAGE-1       L2_0L            0.008700 0.000000 500.000000 0.500000 0.000000                 
P_SUB-L2_0M      RAINGAGE-1       L2_0M            0.078600 0.000000 500.000000 0.500000 0.000000                 
P_SUB-L2_0N      RAINGAGE-1       L2_0N            0.643600 0.000000 500.000000 0.500000 0.000000                 
P_SUB-L3_1       RAINGAGE-1       L3_1             11.423100 0.000000 500.000000 0.500000 0.000000                 
P_SUB-L3_2       RAINGAGE-1       L3_2             7.384700 0.000000 500.000000 0.500000 0.000000                 
P_SUB-L3_3       RAINGAGE-1       L3_3             13.899300 0.000000 500.000000 0.500000 0.000000                 
P_SUB-L3_5       RAINGAGE-1       L3_5             14.623900 0.000000 500.000000 0.500000 0.000000                 
P_SUB-L4_2       RAINGAGE-1       L4_2             4.278600 0.000000 500.000000 0.500000 0.000000                 
P_SUB-L4_3       RAINGAGE-1       L4_3             8.501200 0.000000 500.000000 0.500000 0.000000                 
P_SUB-L5_0       RAINGAGE-1       L5_0             10.332800 0.000000 500.000000 0.500000 0.000000                 
P_SUB-L5_0A      RAINGAGE-1       L5_0A            8.591200 0.000000 500.000000 0.500000 0.000000                 
P_SUB-L6_0       RAINGAGE-1       L6_0             18.135000 0.000000 500.000000 0.500000 0.000000                 
P_SUB-L6_1       RAINGAGE-1       L6_1             8.045100 0.000000 500.000000 0.500000 0.000000                 
P_SUB-L6_2       RAINGAGE-1       L6_2             2.332700 0.000000 500.000000 0.500000 0.000000                 
P_SUB-L7_0       RAINGAGE-1       L7_0             5.729300 0.000000 500.000000 0.500000 0.000000                 
P_SUB-L8_0       RAINGAGE-1       L8_0             1.170800 0.000000 500.000000 0.500000 0.000000                 
P_SUB-L8_1       RAINGAGE-1       L8_1             1.400800 0.000000 500.000000 0.500000 0.000000                 
P_SUB-L9_0       RAINGAGE-1       L9_0             0.678100 0.000000 500.000000 0.500000 0.000000                 
P_SUB-L9_1       RAINGAGE-1       L9_1             0.848800 0.000000 500.000000 0.500000 0.000000                 
P_SUB-L9_2A      RAINGAGE-1       L9_2A            1.632500 0.000000 500.000000 0.500000 0.000000                 
P_SUB-L9_2X      RAINGAGE-1       L9_2             2.425900 0.000000 500.000000 0.500000 0.000000                 
P_SUB-L9_2Y      RAINGAGE-1       L9_2             2.001000 0.000000 500.000000 0.500000 0.000000                 
P_SUB-L9_3       RAINGAGE-1       L9_3             1.767600 0.000000 500.000000 0.500000 0.000000                 
P_SUB-L9_4       RAINGAGE-1       L9_4             0.132500 0.000000 500.000000 0.500000 0.000000                 
P_SUB-NN1        RAINGAGE-1       L11_1            1.541700 0.000000 500.000000 0.500000 0.000000                 
P_SUB-NN2        RAINGAGE-1       JCT-1666         8.312800 0.000000 500.000000 0.500000 0.000000                 
P_SUB-NN3        RAINGAGE-1       4_1              2.242500 0.000000 500.000000 0.500000 0.000000                 
P_SUB-NN4        RAINGAGE-1       8_1              16.135400 0.000000 500.000000 0.500000 0.000000                 
P_SUB-NN5        RAINGAGE-1       L8_2A            1.226900 0.000000 500.000000 0.500000 0.000000                 
P_SUB-NN6        RAINGAGE-1       L1_13            1.012800 0.000000 500.000000 0.500000 0.000000                 
P_SUB-UDOT_1     RAINGAGE-1       1_28             2.248100 0.000000 500.000000 0.500000 0.000000                 
; Impervious
SUB-10_0A        RAINGAGE-1       10_0A            4.920000 0.000000 500.000000 0.500000 0.000000                 
; Impervious
SUB-10_0X        RAINGAGE-1       10_0             2.990000 0.000000 500.000000 0.500000 0.000000                 
; Impervious
SUB-10_0Y        RAINGAGE-1       10_0             4.050000 0.000000 500.000000 0.500000 0.000000                 
; Impervious
SUB-10_1A        RAINGAGE-1       10_1A            4.850000 0.000000 500.000000 0.500000 0.000000                 
; Impervious
SUB-10_3         RAINGAGE-1       10_3             1.020000 0.000000 500.000000 0.500000 0.000000                 
; Impervious
SUB-11_0X        RAINGAGE-1       11_0             1.980000 0.000000 500.000000 0.500000 0.000000                 
; Impervious
SUB-11_0Y        RAINGAGE-1       11_0             5.430000 0.000000 500.000000 0.500000 0.000000                 
; Impervious
SUB-11_1         RAINGAGE-1       11_1             0.770000 0.000000 500.000000 0.500000 0.000000                 
; Impervious
SUB-11_2         RAINGAGE-1       11_2             1.780000 0.000000 500.000000 0.500000 0.000000                 
SUB-12_0         RAINGAGE-1       12_1             0.900000 0.000000 500.000000 0.500000 0.000000                 
; Impervious
SUB-12_1         RAINGAGE-1       12_1             5.320000 0.000000 500.000000 0.500000 0.000000                 
; Impervious
SUB-12_2         RAINGAGE-1       12_2             4.590000 0.000000 500.000000 0.500000 0.000000                 
; Impervious
SUB-12_3         RAINGAGE-1       12_3             1.560000 0.000000 500.000000 0.500000 0.000000                 
; Impervious
SUB-12_4         RAINGAGE-1       12_4             1.640000 0.000000 500.000000 0.500000 0.000000                 
; Impervious
SUB-13_0         RAINGAGE-1       13_0             1.590000 0.000000 500.000000 0.500000 0.000000                 
; Impervious
SUB-15_0X        RAINGAGE-1       15_0             2.250000 0.000000 500.000000 0.500000 0.000000                 
; Impervious
SUB-15_0Y        RAINGAGE-1       15_0             8.360000 0.000000 500.000000 0.500000 0.000000                 
; Impervious
SUB-15_1         RAINGAGE-1       15_1_1           5.040000 0.000000 500.000000 0.500000 0.000000                 
; Impervious
SUB-15_2         RAINGAGE-1       L15_2            0.540000 0.000000 500.000000 0.500000 0.000000                 
; Impervious
SUB-16_0         RAINGAGE-1       600_NORTH        12.020000 0.000000 500.000000 0.500000 0.000000                 
; Impervious
SUB-17_0         RAINGAGE-1       17_0             23.030000 0.000000 500.000000 0.500000 0.000000                 
; Impervious
SUB-1_0BX        RAINGAGE-1       1_0B             9.350000 0.000000 500.000000 0.500000 0.000000                 
; Impervious
SUB-1_0BY        RAINGAGE-1       1_0B             20.490000 0.000000 500.000000 0.500000 0.000000                 
; Impervious
SUB-1_0X         RAINGAGE-1       1_0              9.580000 0.000000 500.000000 0.500000 0.000000                 
; Impervious
SUB-1_0Y         RAINGAGE-1       1_0              15.570000 0.000000 500.000000 0.500000 0.000000                 
; Impervious
SUB-1_0Z         RAINGAGE-1       1_0              4.090000 0.000000 500.000000 0.500000 0.000000                 
; Impervious