[TITLE]
;;Project Title/Notes

[OPTIONS]
;;Option             Value
FLOW_UNITS           LPS
INFILTRATION         HORTON
FLOW_ROUTING         DYNWAVE
LINK_OFFSETS         DEPTH
MIN_SLOPE            0
ALLOW_PONDING        YES
SKIP_STEADY_STATE    NO

START_DATE           06/30/2008
START_TIME           00:00:00
REPORT_START_DATE    06/30/2008
REPORT_START_TIME    00:00:00
END_DATE             07/02/2008
END_TIME             23:55:00
SWEEP_START          01/01
SWEEP_END            12/31
DRY_DAYS             5.000000
REPORT_STEP          00:05:00
WET_STEP             00:05:00
DRY_STEP             00:05:00
ROUTING_STEP         0:00:10 

INERTIAL_DAMPING     NONE
NORMAL_FLOW_LIMITED  BOTH
FORCE_MAIN_EQUATION  H-W
VARIABLE_STEP        0.75
LENGTHENING_STEP     10
MIN_SURFAREA         3.000000
MAX_TRIALS           8
HEAD_TOLERANCE       0.001000
SYS_FLOW_TOL         5
LAT_FLOW_TOL         5
MINIMUM_STEP         0
THREADS              1

[EVAPORATION]
;;Data Source    Parameters
;;-------------- ----------------
CONSTANT         0.000000
DRY_ONLY         NO

[RAINGAGES]
;;Name           Format    Interval SCF      Source    
;;-------------- --------- ------ ------ ----------
MyGage           VOLUME    0:10     0.000000 TIMESERIES 100YearStorm    

[SUBCATCHMENTS]
;;Name           Rain Gage        Outlet           Area     %Imperv  Width    %Slope   CurbLen  SnowPack        
;;-------------- ---------------- ---------------- -------- -------- -------- -------- -------- ----------------
CCOL01           MyGage           37010            0.000100 0.000000 2.315870 0.005000 0.000000                 
CCOL02           MyGage           5402040          0.000100 0.000000 0.897326 0.005000 0.000000                 
CCOL03           MyGage           5404010          0.000100 0.000000 3.051809 0.005000 0.000000                 
CCOL04           MyGage           5404050          0.000100 0.000000 3.163412 0.005000 0.000000                 
CCOL05           MyGage           5405020          0.000100 0.000000 2.354264 0.005000 0.000000                 
CCOL06           MyGage           5406100          0.000100 0.000000 1.838441 0.005000 0.000000                 
CCOL07           MyGage           5259010          0.000100 0.000000 21.411880 0.005000 0.000000                 
CENTERCOLLINGWOODSTORM MyGage           CELL4INLET       0.000100 55.000000 380.000000 0.500000 0.000000                 
CHBT01           MyGage           7054110          0.000100 0.000000 3.228387 0.005000 0.000000                 
CHBT02           MyGage           7102110          0.000100 0.000000 6.322530 0.005000 0.000000                 
CHBT03           MyGage           7101110          0.000100 0.000000 7.860541 0.005000 0.000000                 
CHRB01           MyGage           7954110          0.000100 0.000000 10.143660 0.005000 0.000000                 
CHRB02           MyGage           9222100          0.000100 0.000000 16.911330 0.005000 0.000000                 
CHRB03           MyGage           7455020          0.000100 0.000000 12.044570 0.005000 0.000000                 
CHRB04           MyGage           7105010          0.000100 0.000000 2.306486 0.005000 0.000000                 
CHRB05           MyGage           7105020          0.000100 0.000000 5.408536 0.005000 0.000000                 
CHRB06           MyGage           7104010          0.000100 0.000000 6.392255 0.005000 0.000000                 
CHRB07           MyGage           9903010          0.000100 0.000000 2.669285 0.005000 0.000000                 
CHRB08           MyGage           9902010          0.000100 0.000000 3.194508 0.005000 0.000000                 
CHRB09           MyGage           9901010          0.000100 0.000000 4.465703 0.005000 0.000000                 
CHRB10           MyGage           6020             0.000100 0.000000 4.286708 0.005000 0.000000                 
CHRB11           MyGage           9101010          0.000100 0.000000 2.940036 0.005000 0.000000                 
CHRB12           MyGage           5010             0.000100 0.000000 4.268746 0.005000 0.000000                 
CHRB13           MyGage           4010             0.000100 0.000000 5.147535 0.005000 0.000000                 
CHRB14           MyGage           6752020          0.000100 0.000000 6.455364 0.005000 0.000000                 
CHRB15           MyGage           1010             0.000100 0.000000 5.348298 0.005000 0.000000                 
CHRB16           MyGage           6551030          0.000100 0.000000 6.904584 0.005000 0.000000                 
CHRB17           MyGage           6451050          0.000100 0.000000 5.329137 0.005000 0.000000                 
CHRB18           MyGage           6351020          0.000100 0.000000 4.936728 0.005000 0.000000                 
CHRB19           MyGage           6251040          0.000100 0.000000 5.897419 0.005000 0.000000                 
CHRB20           MyGage           6151050          0.000100 0.000000 4.955306 0.005000 0.000000                 
CHRB21           MyGage           6053010          0.000100 0.000000 2.919903 0.005000 0.000000                 
CHRB22           MyGage           6052020          0.000100 0.000000 5.875606 0.005000 0.000000                 
CHRB23           MyGage           6051031          0.000100 0.000000 4.378354 0.005000 0.000000                 
CKNG01           MyGage           3151010          0.000100 0.000000 7.887806 0.005000 0.000000                 
CKNG02           MyGage           48040            0.000100 0.000000 6.254649 0.005000 0.000000                 
CKNG03           MyGage           49010            0.000100 0.000000 15.481510 0.005000 0.000000                 
CKNG04           MyGage           50010            0.000100 0.000000 2.628631 0.005000 0.000000                 
CKNG05           MyGage           51100            0.000100 0.000000 1.502505 0.005000 0.000000                 
CKNG06           MyGage           52010            0.000100 0.000000 3.146427 0.005000 0.000000                 
CKNG07           MyGage           53010            0.000100 0.000000 1.493657 0.005000 0.000000                 
CKNG08           MyGage           54020            0.000100 0.000000 10.146380 0.005000 0.000000                 
CKNG09           MyGage           54040            0.000100 0.000000 16.057280 0.005000 0.000000                 
CKNG10           MyGage           54050            0.000100 0.000000 12.089270 0.005000 0.000000                 
CNEO01           MyGage           7109010          0.000100 0.000000 8.542316 0.005000 0.000000                 
CNEO02           MyGage           9227020          0.000100 0.000000 23.532440 0.005000 0.000000                 
CNEO03           MyGage           9227081          0.000100 0.000000 20.532670 0.005000 0.000000                 
CNEO04           MyGage           9228041          0.000100 0.000000 4.692824 0.005000 0.000000                 
CNEO05           MyGage           8565010          0.000100 0.000000 5.407362 0.005000 0.000000                 
CNEO06           MyGage           8565020          0.000100 0.000000 8.775068 0.005000 0.000000                 
CNEO07           MyGage           9653010          0.000100 0.000000 10.766450 0.005000 0.000000                 
CNEO08           MyGage           9654020          0.000100 0.000000 3.868030 0.005000 0.000000                 
CNEO09           MyGage           9655010          0.000100 0.000000 2.436655 0.005000 0.000000                 
CNEO10           MyGage           9655020          0.000100 0.000000 2.722670 0.005000 0.000000                 
CNEO11           MyGage           231010           0.000100 0.000000 8.446871 0.005000 0.000000                 
CNEO12           MyGage           231030           0.000100 0.000000 1.943844 0.005000 0.000000                 
CNET01           MyGage           233011           0.000100 0.000000 15.142550 0.005000 0.000000                 
CNET02           MyGage           9624010          0.000100 0.000000 16.526950 0.005000 0.000000                 
CNET03           MyGage           9628010          0.000100 0.000000 6.546759 0.005000 0.000000                 
CNET04           MyGage           1760020          0.000100 0.000000 24.636430 0.005000 0.000000                 
CNET05           MyGage           1762010          0.000100 0.000000 11.834530 0.005000 0.000000                 
CNET06           MyGage           1762030          0.000100 0.000000 15.415860 0.005000 0.000000                 
CNET07           MyGage           614051           0.000100 0.000000 11.019680 0.005000 0.000000                 
CNET08           MyGage           509020           0.000100 0.000000 12.789440 0.005000 0.000000                 
CNET09           MyGage           509031           0.000100 0.000000 3.399103 0.005000 0.000000                 
CNET10           MyGage           509091           0.000100 0.000000 3.604324 0.005000 0.000000                 
CNET11           MyGage           9729010          0.000100 0.000000 16.325970 0.005000 0.000000                 
CNET12           MyGage           2285010          0.000100 0.000000 5.746874 0.005000 0.000000                 
CNET13           MyGage           2284040          0.000100 0.000000 4.557404 0.005000 0.000000                 
CNET14           MyGage           2284060          0.000100 0.000000 7.321683 0.005000 0.000000                 
CNET15           MyGage           2284131          0.000100 0.000000 6.730321 0.005000 0.000000                 
CNET16           MyGage           2284141          0.000100 0.000000 11.690740 0.005000 0.000000                 
CNET17           MyGage           9432010          0.000100 0.000000 3.572797 0.005000 0.000000                 
CNET18           MyGage           3943110          0.000100 0.000000 12.357140 0.005000 0.000000                 
CNET19           MyGage           3942010          0.000100 0.000000 11.876000 0.005000 0.000000                 
CNET20           MyGage           9716010          0.000100 0.000000 15.909670 0.005000 0.000000                 
COKL01           MyGage           5002110          0.000100 0.000000 17.205380 0.005000 0.000000                 
COKL02           MyGage           34050            0.000100 0.000000 2.543188 0.005000 0.000000                 
COKL03           MyGage           5302030          0.000100 0.000000 11.356530 0.005000 0.000000                 
COKL04           MyGage           9502020          0.000100 0.000000 11.535170 0.005000 0.000000                 
COKL05           MyGage           39130            0.000100 0.000000 6.745347 0.005000 0.000000                 
COKL06           MyGage           40030            0.000100 0.000000 6.942711 0.005000 0.000000                 
COKL07           MyGage           41020            0.000100 0.000000 3.531780 0.005000 0.000000                 
COKL08           MyGage           42020            0.000100 0.000000 5.765851 0.005000 0.000000                 
COKL09           MyGage           4602010          0.000100 0.000000 7.070246 0.005000 0.000000                 
COKL10           MyGage           4803002          0.000100 0.000000 4.477766 0.005000 0.000000                 
; Combined Sewer Area
COM_CCOL03       MyGage           5404010          1.080000 45.295000 100.000000 0.005000 0.000000                 
; Combined Sewer Area
COM_CCOL04       MyGage           5404050          2.519000 45.920000 120.000000 0.005000 0.000000                 
; Combined Sewer Area
COM_CCOL05       MyGage           5405020          1.256000 88.482000 120.000000 0.005000 0.000000                 
; Combined Sewer Area
COM_CCOL06       MyGage           5259010          0.149000 57.592000 40.000000 0.005000 0.000000                 
; Combined Sewer Area
COM_CCOL07       MyGage           5259010          2.338000 36.995000 210.000000 0.005000 0.000000                 
; Combined Sewer Area
COM_CHBT01       MyGage           7054110          2.175000 90.000000 130.000000 0.005000 0.000000                 
; Combined Sewer Area
COM_CHBT02       MyGage           7102110          0.643000 41.200000 20.000000 0.005000 0.000000                 
; Combined Sewer Area
COM_CHBT02A      MyGage           7102110          0.643000 41.202000 20.000000 0.005000 0.000000                 
; Combined Sewer Area
COM_CHBT02B      MyGage           7102110          0.294355 0.900000 100.000000 0.005000 0.000000                 
; Combined Sewer Area
COM_CHBT03       MyGage           7101110          10.702000 68.559000 150.000000 0.005000 0.000000                 
; Combined Sewer Area
COM_CHRB01       MyGage           7954110          2.007000 40.363000 150.000000 0.005000 0.000000                 
; Combined Sewer Area
COM_CHRB02       MyGage           9413020          2.212000 59.747000 200.000000 0.005000 0.000000                 
; Combined Sewer Area
COM_CHRB02B      MyGage           9916020          0.701016 44.500000 100.000000 0.005000 0.000000                 
; Combined Sewer Area
COM_CHRB03       MyGage           7608010          0.680000 46.381000 150.000000 0.005000 0.000000                 
; Combined Sewer Area
COM_CHRB03B      MyGage           7558025          1.762927 62.500000 100.000000 0.005000 0.000000                 
; Combined Sewer Area
COM_CHRB03C      MyGage           7456-015         3.984918 62.500000 100.000000 0.005000 0.000000                 
; Combined Sewer Area
COM_CHRB03D      MyGage           7455035          1.125000 72.250000 100.000000 0.050000 0.000000                 
; Combined Sewer Area
COM_CHRB05       MyGage           7105020          4.896000 54.349000 130.000000 0.005000 0.000000                 
COM_CHRB11       MyGage           9101010          1.564000 90.000000 70.000000 0.005000 0.000000                 
; Combined Sewer Area
COM_CHRB12       MyGage           5010             0.304000 92.965000 100.000000 0.005000 0.000000                 
; Combined Sewer Area
COM_CHRB13       MyGage           4010             1.589000 94.008000 80.000000 0.005000 0.000000                 
; Combined Sewer Area
COM_CHRB14       MyGage           6752020          6.000000 98.741000 120.000000 0.005000 0.000000                 
; Combined Sewer Area
COM_CHRB15       MyGage           1010             0.934000 50.179000 110.000000 0.005000 0.000000                 
; Combined Sewer Area
COM_CHRB16       MyGage           6551030          8.125000 66.268000 120.000000 0.005000 0.000000                 
; Combined Sewer Area
COM_CHRB17       MyGage           6451050          6.259000 47.432000 100.000000 0.005000 0.000000                 
; Combined Sewer Area
COM_CHRB18       MyGage           6351020          3.452000 75.687000 100.000000 0.005000 0.000000                 
; Combined Sewer Area
COM_CHRB19       MyGage           6251040          6.439000 53.342000 100.000000 0.005000 0.000000                 
; Combined Sewer Area
COM_CHRB20       MyGage           6151050          4.141000 19.222000 140.000000 0.005000 0.000000                 
; Combined Sewer Area
COM_CHRB22       MyGage           6052020          8.517000 19.065000 270.000000 0.005000 0.000000                 
; Combined Sewer Area
COM_CHRB23       MyGage           6051031          0.286000 56.520000 60.000000 0.005000 0.000000                 
; Combined Sewer Area
COM_CNEO02A      MyGage           9227020          9.830000 41.935000 320.000000 0.005000 0.000000                 
; Combined Sewer Area
COM_CNEO02B      MyGage           9227020          0.142372 25.000000 25.000000 0.005000 0.000000                 
; Combined Sewer Area
COM_CNEO02C      MyGage           9227020          4.865000 37.400000 90.000000 0.005000 0.000000                 
COM_COKL01       MyGage           34030            3.058000 90.000000 100.000000 0.005000 0.000000                 
; Combined Sewer Area
COM_COKL01B      MyGage           5052100          2.468000 46.149000 100.000000 0.005000 0.000000                 
; Combined Sewer Area
COM_COKL01C      MyGage           5003030          22.119152 65.000000 100.000000 0.005000 0.000000                 
; Combined Sewer Area
COM_COKL01D      MyGage           9802030          21.235638 75.000000 100.000000 0.005000 0.000000                 
; Combined Sewer Area
COM_COKL01E      MyGage           5004030          1.499215 90.000000 100.000000 0.005000 0.000000                 
; Combined Sewer Areas
COM_COKL01F      MyGage           COM_COKL01F      1.219361 63.044000 100.000000 0.005000 0.000000                 
; Combined Sewer Area
COM_COKL01G      MyGage           9802010          1.034339 45.296000 100.000000 0.005000 0.000000                 
; Combined Sewer Area
COM_COKL01H      MyGage           9802010          0.934881 71.433000 100.000000 0.005000 0.000000                 
; Combined Sewer Area
COM_COKL01I      MyGage           5004010          0.619891 25.000000 100.000000 0.005000 0.000000                 
; Combined Sewer Area
COM_COKL01J      MyGage           5052100          2.472143 50.000000 100.000000 0.005000 0.000000                 
; Combined Sewer Area
COM_COKL01L      MyGage           5002010          1.118946 95.000000 100.000000 0.005000 0.000000                 
; Combined Sewer Area
COM_COKL02       MyGage           34050            0.928000 62.460000 100.000000 0.005000 0.000000                 
; Combined Sewer Area
COM_COKL04       MyGage           9502030          12.486000 55.673000 250.000000 0.005000 0.000000                 
; Combined Sewer Area
COM_COKL04B      MyGage           9502030          1.310000 58.728000 90.000000 0.005000 0.000000                 
COM_COKL05       MyGage           39130            2.278000 25.400000 140.000000 0.005000 0.000000                 
; Combined Sewer Area
COM_COKL07       MyGage           41020            0.573000 62.500000 75.000000 0.005000 0.000000                 
; Combined Sewer Area
COM_COKL08       MyGage           42020            6.931000 55.000000 110.000000 0.005000 0.000000                 
; Combined Sewer Area
COM_COKL09       MyGage           4602010          10.989000 41.918000 250.000000 0.005000 0.000000                 
; Combined Sewer Area
COM_COKL10       MyGage           4803002          3.577000 33.284000 120.000000 0.005000 0.000000                 
; Dummy catchment to geenrate storm inflow to ControlNode whic
CONTROLNODECATCHMENT MyGage           CONTROLNODE      0.000100 55.000000 750.000000 0.500000 0.000000                 
CPRS01           MyGage           2285030          0.000100 0.000000 6.714406 0.005000 0.000000                 
CPRS02           MyGage           828040           0.000100 0.000000 13.760580 0.005000 0.000000                 
CPRS03           MyGage           825030           0.000100 0.000000 8.912381 0.005000 0.000000                 
CPRS04           MyGage           825080           0.000100 0.000000 5.327321 0.005000 0.000000                 
CPRS05           MyGage           825090           0.000100 0.000000 7.709169 0.005000 0.000000                 
CPRS06           MyGage           823020           0.000100 0.000000 17.895220 0.005000 0.000000                 
CRHT01           MyGage           8554030          0.000100 0.000000 13.795580 0.005000 0.000000                 
CRHT02           MyGage           8554041          0.000100 0.000000 6.147623 0.005000 0.000000                 
CRHT03           MyGage           8554081          0.000100 0.000000 10.310090 0.005000 0.000000                 
CRHT04           MyGage           8569041          0.000100 0.000000 6.191574 0.005000 0.000000                 
CRHT05           MyGage           CRHT07           0.000100 0.000000 17.231600 0.005000 0.000000                 
CRHT06           MyGage           8569131          0.000100 0.000000 6.019693 0.005000 0.000000                 
CRHT07           MyGage           8902020          0.000100 0.000000 18.514010 0.005000 0.000000                 
CYNG01           MyGage           3151030          0.000100 0.000000 16.428610 0.005000 0.000000                 
CYNG02           MyGage           3208020          0.000100 0.000000 7.262952 0.005000 0.000000                 
CYNG03           MyGage           3209020          0.000100 0.000000 2.296273 0.005000 0.000000                 
CYNG04           MyGage           3210010          0.000100 0.000000 9.489112 0.005000 0.000000                 
CYNG05           MyGage           3214010          0.000100 0.000000 1.732660 0.005000 0.000000                 
CYNG06           MyGage           329010           0.000100 0.000000 16.627370 0.005000 0.000000                 
ECFB01           MyGage           13266071         0.000100 0.000000 22.466140 0.005000 0.000000                 
ECFB02           MyGage           13266081         0.000100 0.000000 7.316239 0.005000 0.000000                 
ECFB03           MyGage           13266091         0.000100 0.000000 6.897563 0.005000 0.000000                 
ECFB04           MyGage           11282010         0.000100 0.000000 11.021380 0.005000 0.000000                 
ECFB05           MyGage           11110010         0.000100 0.000000 12.294660 0.005000 0.000000                 
ECFB06           MyGage           11110021         0.000100 0.000000 6.996223 0.005000 0.000000                 
ECFB07           MyGage           11245011         0.000100 0.000000 17.017790 0.005000 0.000000                 
ECFB08           MyGage           12035020         0.000100 0.000000 9.416883 0.005000 0.000000                 
ECFB09           MyGage           9                0.000100 0.000000 15.470760 0.005000 0.000000                 
EH1501           MyGage           5                0.000100 0.000000 16.618310 0.005000 0.000000                 
EH1502           MyGage           630010           0.000100 0.000000 4.524994 0.005000 0.000000                 
EH1503           MyGage           630020           0.000100 0.000000 11.808580 0.005000 0.000000                 
EH1504           MyGage           630070           0.000100 0.000000 4.401169 0.005000 0.000000                 
EH1505           MyGage           631020           0.000100 0.000000 10.137590 0.005000 0.000000                 
EH1506           MyGage           632010           0.000100 0.000000 11.158110 0.005000 0.000000                 
EH1507           MyGage           632060           0.000100 0.000000 6.134508 0.005000 0.000000                 
EH1508           MyGage           633010           0.000100 0.000000 11.841020 0.005000 0.000000                 
EH1509           MyGage           633060           0.000100 0.000000 9.709396 0.005000 0.000000                 
EH1510           MyGage           633120           0.000100 0.000000 7.396125 0.005000 0.000000                 
EH1511           MyGage           636020           0.000100 0.000000 14.376620 0.005000 0.000000                 
EH1512           MyGage           637056           0.000100 0.000000 6.593396 0.005000 0.000000                 
EH1513           MyGage           637060           0.000100 0.000000 19.516710 0.005000 0.000000                 
WFNT01           MyGage           61030            0.000100 0.000000 18.817740 0.005000 0.000000                 
WFNT02           MyGage           65010            0.000100 0.000000 14.920650 0.005000 0.000000                 
WFNT04           MyGage           68010            0.000100 0.000000 7.838162 0.005000 0.000000                 
WFNT05           MyGage           31111010         0.000100 0.000000 14.926790 0.005000 0.000000                 
; W-San-Catchment
WHM207           MyGage           36171040         0.000100 0.000000 500.000000 0.005000 0.000000                 
WHW201           MyGage           356010           0.000100 0.000000 12.561450 0.005000 0.000000                 
WHW202           MyGage           842040           0.000100 0.000000 20.621310 0.005000 0.000000                 
WHW203           MyGage           842070           0.000100 0.000000 13.778780 0.005000 0.000000                 
WHW204           MyGage           842110           0.000100 0.000000 7.594810 0.005000 0.000000                 
; W-San-Catchment
WHW205           MyGage           36184010         0.000100 0.000000 500.000000 0.005000 0.000000                 
; W-San-Catchment
WHW206           MyGage           36183010         0.000100 0.000000 500.000000 0.005000 0.000000                 
; W-San-Catchment
WHW207           MyGage           36178030         0.000100 0.000000 500.000000 0.005000 0.000000                 
; W-San-Catchment
WHW208           MyGage           36170018         0.000100 0.000000 500.000000 0.005000 0.000000                 
; W-San-Catchment
WHW209           MyGage           36159E020        0.000100 0.000000 500.000000 0.005000 0.000000                 
; W-San-Catchment
WHW210           MyGage           36161050         0.000100 0.000000 500.000000 0.005000 0.000000                 
; W-San-Catchment
WHW211           MyGage           36161040         0.000100 0.000000 500.000000 0.005000 0.000000                 
; W-San-Catchment
WHW212           MyGage           36167040         0.000100 0.000000 500.000000 0.005000 0.000000                 
; W-San-Catchment
WHW213           MyGage           36163020         0.000100 0.000000 500.000000 0.005000 0.000000                 
; W-San-Catchment
WHW214           MyGage           36163010         0.000100 0.000000 500.000000 0.005000 0.000000                 
WMCE01           MyGage           345010           0.000100 0.000000 14.936870 0.005000 0.000000                 
WMCE02           MyGage           345111           0.000100 0.000000 6.214291 0.005000 0.000000                 
WMCE03           MyGage           345121           0.000100 0.000000 8.103461 0.005000 0.000000                 
WMCE04           MyGage           31327030         0.000100 0.000000 6.038733 0.005000 0.000000                 
WMCE05           MyGage           769031           0.000100 0.000000 22.815670 0.005000 0.000000                 
WMON01           MyGage           33461010         0.000100 0.000000 12.918640 0.005000 0.000000                 
WMON02           MyGage           33383041         0.000100 0.000000 4.275545 0.005000 0.000000                 
WMON03           MyGage           33399010         0.000100 0.000000 8.935513 0.005000 0.000000                 
WMON04           MyGage           33492020         0.000100 0.000000 5.966724 0.005000 0.000000                 
WMON05           MyGage           33492030         0.000100 0.000000 3.011790 0.005000 0.000000                 
WMON06           MyGage           34003020         0.000100 0.000000 3.516489 0.005000 0.000000                 
WMON07           MyGage           34008020         0.000100 0.000000 2.543777 0.005000 0.000000                 
WMON08           MyGage           34021010         0.000100 0.000000 4.753656 0.005000 0.000000                 
WMON09           MyGage           34021040         0.000100 0.000000 4.366160 0.005000 0.000000                 
WMON10           MyGage           34022020         0.000100 0.000000 8.783045 0.005000 0.000000                 
WMON11           MyGage           34023030         0.000100 0.000000 4.522182 0.005000 0.000000                 
WMON12           MyGage           34024040         0.000100 0.000000 5.044299 0.005000 0.000000                 
WMON13           MyGage           34026050         0.000100 0.000000 6.832772 0.005000 0.000000                 
WMON14           MyGage           34153010         0.000100 0.000000 5.717977 0.005000 0.000000                 
WMON15           MyGage           34154040         0.000100 0.000000 2.903798 0.005000 0.000000                 
WMON16           MyGage           34156020         0.000100 0.000000 2.975844 0.005000 0.000000                 
WMON17           MyGage           34158030         0.000100 0.000000 2.933794 0.005000 0.000000                 
WMON18           MyGage           34166020         0.000100 0.000000 16.519070 0.005000 0.000000                 
WMON19           MyGage           33462030         0.000100 0.000000 8.436651 0.005000 0.000000                 
WMON20           MyGage           33463020         0.000100 0.000000 3.444560 0.005000 0.000000                 
WMON21           MyGage           33464020         0.000100 0.000000 2.717558 0.005000 0.000000                 
WMON22           MyGage           33471010         0.000100 0.000000 17.552880 0.005000 0.000000                 
WMON23           MyGage           33472030         0.000100 0.000000 5.089210 0.005000 0.000000                 
WMON24           MyGage           33865020         0.000100 0.000000 3.383611 0.005000 0.000000                 
WMON25           MyGage           33861020         0.000100 0.000000 3.935561 0.005000 0.000000                 
WMON26           MyGage           33863010         0.000100 0.000000 4.875391 0.005000 0.000000                 
WMON27           MyGage           9559010          0.000100 0.000000 14.948510 0.005000 0.000000                 
; W-San-Catchment
WMON27A          MyGage           0852-010         0.000100 0.000000 500.000000 0.005000 0.000000                 
; W-San-Catchment
WMON29           MyGage           0850-050         0.000100 0.000000 500.000000 0.005000 0.000000                 
WNCC01           MyGage           33022031         0.000100 0.000000 4.708041 0.005000 0.000000                 
WNCC02           MyGage           33022040         0.000100 0.000000 5.485038 0.005000 0.000000                 
WNCC03           MyGage           33024020         0.000100 0.000000 5.153362 0.005000 0.000000                 
WNCC04           MyGage           33026030         0.000100 0.000000 9.647395 0.005000 0.000000                 