[TITLE]
;;Project Title/Notes
projet annasr2

[OPTIONS]
;;Option             Value
FLOW_UNITS           CMS
INFILTRATION         HORTON
FLOW_ROUTING         DYNWAVE
LINK_OFFSETS         DEPTH
MIN_SLOPE            0
ALLOW_PONDING        NO
SKIP_STEADY_STATE    NO

START_DATE           03/19/2014
START_TIME           00:00:00
REPORT_START_DATE    03/19/2014
REPORT_START_TIME    00:00:00
END_DATE             03/19/2014
END_TIME             04:00:00
SWEEP_START          01/01
SWEEP_END            12/31
DRY_DAYS             0
REPORT_STEP          00:01:00
WET_STEP             00:00:30
DRY_STEP             01:00:00
ROUTING_STEP         0:00:20 

INERTIAL_DAMPING     NONE
NORMAL_FLOW_LIMITED  BOTH
FORCE_MAIN_EQUATION  H-W
VARIABLE_STEP        0.75
LENGTHENING_STEP     5
MIN_SURFAREA         1.14
MAX_TRIALS           12
HEAD_TOLERANCE       0.00001
SYS_FLOW_TOL         5
LAT_FLOW_TOL         5
MINIMUM_STEP         0
THREADS              1

[EVAPORATION]
;;Data Source    Parameters
;;-------------- ----------------
CONSTANT         0.0
DRY_ONLY         NO

[RAINGAGES]
;;Name           Format    Interval SCF      Source    
;;-------------- --------- ------ ------ ----------
StationPluvio    VOLUME    0:01     1.0      TIMESERIES double-triangle 

[SUBCATCHMENTS]
;;Name           Rain Gage        Outlet           Area     %Imperv  Width    %Slope   CurbLen  SnowPack        
;;-------------- ---------------- ---------------- -------- -------- -------- -------- -------- ----------------
S1               StationPluvio    S4               0.9067   64       26.52    0.18     0                        
S2               StationPluvio    S4               1.8172   70       56.78    0.20     0                        
S2bis            StationPluvio    S4               1.1804   70       43.72    0.04     0                        
S3               StationPluvio    S4               1.6781   64       72.13    1.00     0                        
S4               StationPluvio    S6               0.9326   58       80.81    2.23     0                        
S5               StationPluvio    S6               3.3862   70       113.5    1.09     0                        
S6               StationPluvio    S12bis           1.0562   70       32.62    0.48     0                        
S7               StationPluvio    S12bis           4.6315   66       94.27    0.86     0                        
S8               StationPluvio    S13              1.2139   70       50.2234  0.78     0                        
S9               StationPluvio    S3               1.7557   70       72.7058  1.79     0                        
S10              StationPluvio    S13              3.0788   70       68.2555  1.26     0                        
S11              StationPluvio    S13              2.0541   71       52.2685  0.01     0                        
S12              StationPluvio    S22              0.9556   72       85.3214  0.86     0                        
S12bis           StationPluvio    S12              0.9652   70       63.9205  0.30     0                        
S13              StationPluvio    S21              1.7323   60       68.9061  1.55     0                        
S14              StationPluvio    S21              1.1524   71       48.6655  2.03     0                        
S15              StationPluvio    S21              1.4720   71       48.2322  1.60     0                        
S16              StationPluvio    S23              1.8054   71       65.1322  2.04     0                        
S17              StationPluvio    S24              2.5896   71       79.7536  1.50     0                        
S18              StationPluvio    S24              1.1274   71       38.0801  1.99     0                        
S19              StationPluvio    S12              5.1065   62       87.9794  0.72     0                        
S20              StationPluvio    S20              5.7362   62       121.429  0.30     0                        
S21              StationPluvio    S22bis           4.2452   62       84.6011  0.06     0                        
S22              StationPluvio    S22bis           0.4200   71       127.273  1.12     0                        
S22bis           StationPluvio    R34-2            0.3592   70       54.4242  1.38     0                        
S23              StationPluvio    S21              0.5009   71       39.9984  0.54     0                        
S24              StationPluvio    S23              0.6065   71       49.0101  1.46     0                        
S25              StationPluvio    S29              4.1966   62       76.4283  0.69     0                        
S26              StationPluvio    S28              4.0293   71       96.4386  0.14     0                        
S27              StationPluvio    S29              3.5522   62       74.7769  0.79     0                        
S28              StationPluvio    S34              1.7952   71       55.9409  0.02     0                        
S29              StationPluvio    S29bis           0.9251   62       60.7859  0.17     0                        
S29bis           StationPluvio    R41-2            0.2644   70       33.8974  0.30     0                        
S30              StationPluvio    S29bis           6.8678   62       144.985  0.01     0                        
S31              StationPluvio    S34              1.4480   71       62.7764  0.14     0                        
S32              StationPluvio    S38              2.3803   71       50.5511  0.51     0                        
S33              StationPluvio    S38              0.7041   71       77.1616  0.22     0                        
S34              StationPluvio    S35              1.0290   71       95.5787  0.30     0                        
S35              StationPluvio    S36              2.6464   62       106.624  0.49     0                        
S36              StationPluvio    S37              2.7352   62       141.75   0.010    0                        
S37              StationPluvio    R44-2            1.7676   62       117.926  0.24     0                        
S38              StationPluvio    S35              0.4498   71       41.232   0.24     0                        
S39              StationPluvio    S38              1.8855   71       88.3718  0.37     0                        
S40              StationPluvio    S43              1.4787   71       67.2993  0.003    0                        
S41              StationPluvio    S43              2.0584   71       52.5894  0.65     0                        
S42              StationPluvio    S36              3.2485   71       111.17   0.37     0                        
S43              StationPluvio    S37              2.0332   71       46.5029  0.08     0                        
S44              StationPluvio    R44-1            0.4487   71       31.7192  0.15     0                        
S45              StationPluvio    R41-1            2.9847   71       96.683   0.37     0                        
S46              StationPluvio    R34-1            3.6166   71       124.646  0.003    0                        
S47              StationPluvio    R27              1.0045   71       70.7345  0.06     0                        
S48              StationPluvio    R27              1.9460   71       63.797   1.37     0                        
S49              StationPluvio    R20              2.5292   71       72.9549  0.55     0                        
S50              StationPluvio    R12              3.4784   71       67.8011  2.42     0                        
S51              StationPluvio    S53              1.6893   62       77.9449  0.003    0                        
S52              StationPluvio    S54              1.3443   62       44.2379  0.37     0                        
S52bis           StationPluvio    S54              1.5250   70       66.886   0.70     0                        
S53              StationPluvio    S81bis           1.2263   70       64.6612  0.53     0                        
S54              StationPluvio    S59              2.9034   70       177.047  0.37     0                        
S55              StationPluvio    S61              0.5287   70       24.3697  0.37     0                        
S56              StationPluvio    S61              1.6777   70       67.4235  0.37     0                        
S57              StationPluvio    R53              1.5753   70       43.6661  0.29     0                        
S58              StationPluvio    S61              3.2713   70       125.52   0.37     0                        
S59              StationPluvio    S61              0.9150   62       42.8933  0.37     0                        
S60              StationPluvio    S59              0.7531   62       47.2756  0.44     0                        
S61              StationPluvio    S69              0.7787   62       52.6149  0.31     0                        
S62              StationPluvio    R58              0.4990   62       59.2426  0.38     0                        
S63              StationPluvio    R55              0.3378   62       46.6962  0.01     0                        
S64              StationPluvio    R53              1.8196   70       46.2379  4.74     0                        
S65              StationPluvio    S62              1.6548   70       88.492   5.21     0                        
S65bis           StationPluvio    S65              1.0851   70       55.3622  3.96     0                        
S66              StationPluvio    S135             1.8009   70       88.0162  2.59     0                        
S67              StationPluvio    S62              0.8928   70       48.7044  0.37     0                        
S68              StationPluvio    S69              0.7917   70       82.8051  2.74     0                        
S69              StationPluvio    R65              1.2235   70       48.4113  1.11     0                        
S70              StationPluvio    S135             0.7889   70       41.2324  0.37     0                        
S71              StationPluvio    S135             1.3577   70       60.3422  3.66     0                        
S72              StationPluvio    S142             0.2049   70       18.0592  3.77     0                        
S73              StationPluvio    S135             0.6158   70       32.0997  2.50     0                        
S74              StationPluvio    S71              1.2102   70       53.5795  1.76     0                        
S75              StationPluvio    S71              0.4053   70       52.0015  4.55     0                        
S76              StationPluvio    S142             1.1462   70       143.562  4.78     0                        
S77              StationPluvio    S140             1.7807   70       44.9388  1.37     0                        
S78              StationPluvio    R71              3.7952   70       121.171  3.97     0                        
S79              StationPluvio    R71              0.8756   70       41.0252  0.64     0                        
S80              StationPluvio    R65              3.5303   68       108.625  1.42     0                        
S81              StationPluvio    R79              2.8748   70       71.87    1.63     0                        
S81bis           StationPluvio    S81              1.9030   70       82.0259  0.30     0                        
S82              StationPluvio    S83              3.9657   70       41.9882  1.14     0                        
S83              StationPluvio    R79              1.0707   70       128.12   0.13     0                        
S84              StationPluvio    S47              6.2369   70       61.3729  2.74     0                        
S85              StationPluvio    S47              2.9343   70       61.3729  3.64     0                        
S86              StationPluvio    S78              0.6936   71       41.2636  2.10     0                        
S87              StationPluvio    S86              0.5779   71       50.9567  2.01     0                        
S88              StationPluvio    S86              2.7436   70       79.2238  2.14     0                        
S89              StationPluvio    S90              0.5601   70       21.3632  0.02     0                        
S90              StationPluvio    S93              0.2349   70       15.7461  0.46     0                        
S91              StationPluvio    R91              0.7969   70       21.6968  2.41     0                        
S92              StationPluvio    S93              1.0204   70       39.7136  2.11     0                        
S93              StationPluvio    R97              0.3626   70       16.4624  0.01     0                        
S94              StationPluvio    R97              1.6104   62       73.1136  1.78     0                        
S95              StationPluvio    R97              1.4147   62       49.6125  0.62     0                        
S96              StationPluvio    R102             0.3709   62       29.5679  0.59     0                        
S97              StationPluvio    R104             0.2622   62       29.9931  0.37     0                        
S98              StationPluvio    R105             0.1520   70       26.2295  0.37     0                        
S99              StationPluvio    R104             0.4730   70       34.0508  2.17     0                        
S100             StationPluvio    R102             1.5187   70       67.6843  2.01     0                        
S101             StationPluvio    S126             1.8389   70       32.6625  1.75     0                        
S102             StationPluvio    R105             2.1665   70       61.9637  1.40     0                        
S103             StationPluvio    S100             1.5557   70       90.9288  0.57     0                        
S104             StationPluvio    S100             2.6736   70       97.8875  1.70     0                        
S105             StationPluvio    S87              4.4738   70       123.678  0.41     0                        
S106             StationPluvio    S110             0.5381   70       56.0521  0.49     0                        
S107             StationPluvio    S108             7.5238   70       158.126  3.37     0                        
S108             StationPluvio    S117             1.2348   70       62.939   1.36     0                        
S109             StationPluvio    S108             3.5516   70       70.0527  2.45     0                        
S110             StationPluvio    S116             0.8926   70       44.6367  2.52     0                        
S111             StationPluvio    S116             0.4844   70       33.194   3.62     0                        
S112             StationPluvio    S110             1.8733   70       58.0706  0.28     0                        
S113             StationPluvio    S115             0.5137   70       26.6483  0.71     0                        
S114             StationPluvio    S115             2.0318   70       109.549  0.37     0                        
S115             StationPluvio    S116             3.1669   70       133.439  1.73     0                        
S116             StationPluvio    S117             4.2043   70       79.529   2.54     0                        
S117             StationPluvio    S118             0.5952   70       59.8251  1.20     0                        
S118             StationPluvio    S132             0.6063   70       59.9881  0.38     0                        
S119             StationPluvio    S118             4.4682   70       91.0113  1.64     0                        
S120             StationPluvio    S131             1.4943   70       53.5726  4.87     0                        
S121             StationPluvio    S127             2.7463   70       110.756  4.25     0                        
S122             StationPluvio    S125             1.4273   70       70.1066  1.66     0                        
S123             StationPluvio    S125             1.3053   70       58.3479  1.65     0                        
S124             StationPluvio    R116             1.5585   70       32.5114  2.33     0                        
S125             StationPluvio    R116             0.9109   70       43.8439  3.65     0                        
S126             StationPluvio    R100             2.0257   70       161.565  2.98     0                        
S127             StationPluvio    R118             0.8630   70       77.8108  4.02     0                        
S128             StationPluvio    R118             0.2065   62       18.945   4.82     0                        
S129             StationPluvio    R119             0.0662   62       17.8919  0.16     0                        
S130             StationPluvio    S132             4.6945   70       88.472   0.79     0                        
S131             StationPluvio    R130             3.8744   70       76.9096  0.37     0                        
S132             StationPluvio    R130             0.5510   70       51.7128  0.37     0                        
S133             StationPluvio    R41-1            0.2839   70       33.3294  0.67     0                        
S134             StationPluvio    R100             0.5769   62       14.591   0.26     0                        
S135             StationPluvio    S79              2.6196   70       102.729  0.40     0                        
S136             StationPluvio    S148             0.9715   70       67       1.58     0                        
S137             StationPluvio    S141             0.5310   70       37.9286  2.46     0                        
S138             StationPluvio    S78              0.5816   70       41.5429  2.38     0                        
S139             StationPluvio    S140             0.2156   70       37.1724  3.68     0                        
S140             StationPluvio    S141             0.1657   70       27.6167  3.11     0                        
S141             StationPluvio    S142             0.1486   70       24.7667  4.29     0                        
S142             StationPluvio    S78              0.1862   70       31.0333  5.07     0                        
S143             StationPluvio    S146             0.4403   70       48.9222  0.30     0                        
S144             StationPluvio    S149             0.4277   70       61.1     1.47     0                        
S145             StationPluvio    S146             0.4431   70       26.0647  0.23     0                        
S146             StationPluvio    S150             0.2078   70       31.9692  0.85     0                        
S147             StationPluvio    S150             0.5863   70       41.8786  0.37     0                        
S148             StationPluvio    S150             0.2524   70       17.0541  0.02     0                        
S149             StationPluvio    R86              0.4023   70       41.9063  2.25     0                        
S150             StationPluvio    S153             0.2055   70       31.1364  3.26     0                        
S151             StationPluvio    S153             0.4728   70       28.6545  1.22     0                        
S152             StationPluvio    R88              0.4434   70       47.1702  3.76     0                        
S153             StationPluvio    S90              0.4926   70       46.4717  3.46     0                        
S154             StationPluvio    S90              1.3930   70       56.8571  2.07     0                        
S155             StationPluvio    S90              0.5497   70       42.2846  1.04     0                        

[SUBAREAS]
;;Subcatchment   N-Imperv   N-Perv     S-Imperv   S-Perv     PctZero    RouteTo    PctRouted 
;;-------------- ---------- ---------- ---------- ---------- ---------- ---------- ----------
S1               0.01       0.1        0.05       0.05       25         OUTLET    
S2               0.01       0.1        0.05       0.05       25         OUTLET    
S2bis            0.01       0.1        0.05       0.05       25         OUTLET    
S3               0.01       0.1        0.05       0.05       25         OUTLET    
S4               0.01       0.1        0.05       0.05       25         OUTLET    
S5               0.01       0.1        0.05       0.05       25         OUTLET    
S6               0.01       0.1        0.05       0.05       25         OUTLET    
S7               0.01       0.1        0.05       0.05       25         OUTLET    
S8               0.01       0.1        0.05       0.05       25         OUTLET    
S9               0.01       0.1        0.05       0.05       25         OUTLET    
S10              0.01       0.1        0.05       0.05       25         OUTLET    
S11              0.01       0.1        0.05       0.05       25         OUTLET    
S12              0.01       0.1        0.05       0.05       25         OUTLET    
S12bis           0.01       0.1        0.05       0.05       25         OUTLET    
S13              0.01       0.1        0.05       0.05       25         OUTLET    
S14              0.01       0.1        0.05       0.05       25         OUTLET    
S15              0.01       0.1        0.05       0.05       25         OUTLET    
S16              0.01       0.1        0.05       0.05       25         OUTLET    
S17              0.01       0.1        0.05       0.05       25         OUTLET    
S18              0.01       0.1        0.05       0.05       25         OUTLET    
S19              0.01       0.1        0.05       0.05       25         OUTLET    
S20              0.01       0.1        0.05       0.05       25         OUTLET    
S21              0.01       0.1        0.05       0.05       25         OUTLET    
S22              0.01       0.1        0.05       0.05       25         OUTLET    
S22bis           0.01       0.1        0.05       0.05       25         OUTLET    
S23              0.01       0.1        0.05       0.05       25         OUTLET    
S24              0.01       0.1        0.05       0.05       25         OUTLET    
S25              0.01       0.1        0.05       0.05       25         OUTLET    
S26              0.01       0.1        0.05       0.05       25         OUTLET    
S27              0.01       0.1        0.05       0.05       25         OUTLET    
S28              0.01       0.1        0.05       0.05       25         OUTLET    
S29              0.01       0.1        0.05       0.05       25         OUTLET    
S29bis           0.01       0.1        0.05       0.05       25         OUTLET    
S30              0.01       0.1        0.05       0.05       25         OUTLET    
S31              0.01       0.1        0.05       0.05       25         OUTLET    
S32              0.01       0.1        0.05       0.05       25         OUTLET    
S33              0.01       0.1        0.05       0.05       25         OUTLET    
S34              0.01       0.1        0.05       0.05       25         OUTLET    
S35              0.01       0.1        0.05       0.05       25         OUTLET    
S36              0.01       0.1        0.05       0.05       25         OUTLET    
S37              0.01       0.1        0.05       0.05       25         OUTLET    
S38              0.01       0.1        0.05       0.05       25         OUTLET    
S39              0.01       0.1        0.05       0.05       25         OUTLET    
S40              0.01       0.1        0.05       0.05       25         OUTLET    
S41              0.01       0.1        0.05       0.05       25         OUTLET    
S42              0.01       0.1        0.05       0.05       25         OUTLET    
S43              0.01       0.1        0.05       0.05       25         OUTLET    
S44              0.01       0.1        0.05       0.05       25         OUTLET    
S45              0.01       0.1        0.05       0.05       25         OUTLET    
S46              0.01       0.1        0.05       0.05       25         OUTLET    
S47              0.01       0.1        0.05       0.05       25         OUTLET    
S48              0.01       0.1        0.05       0.05       25         OUTLET    
S49              0.01       0.1        0.05       0.05       25         OUTLET    
S50              0.01       0.1        0.05       0.05       25         OUTLET    
S51              0.01       0.1        0.05       0.05       25         OUTLET    
S52              0.01       0.1        0.05       0.05       25         OUTLET    
S52bis           0.01       0.1        0.05       0.05       25         OUTLET    
S53              0.01       0.1        0.05       0.05       25         OUTLET    
S54              0.01       0.1        0.05       0.05       25         OUTLET    
S55              0.01       0.1        0.05       0.05       25         OUTLET    
S56              0.01       0.1        0.05       0.05       25         OUTLET    
S57              0.01       0.1        0.05       0.05       25         OUTLET    
S58              0.01       0.1        0.05       0.05       25         OUTLET    
S59              0.01       0.1        0.05       0.05       25         OUTLET    
S60              0.01       0.1        0.05       0.05       25         OUTLET    
S61              0.01       0.1        0.05       0.05       25         OUTLET    
S62              0.01       0.1        0.05       0.05       25         OUTLET    
S63              0.01       0.1        0.05       0.05       25         OUTLET    
S64              0.01       0.1        0.05       0.05       25         OUTLET    
S65              0.01       0.1        0.05       0.05       25         OUTLET    
S65bis           0.01       0.1        0.05       0.05       25         OUTLET    
S66              0.01       0.1        0.05       0.05       25         OUTLET    
S67              0.01       0.1        0.05       0.05       25         OUTLET    
S68              0.01       0.1        0.05       0.05       25         OUTLET    
S69              0.01       0.1        0.05       0.05       25         OUTLET    
S70              0.01       0.1        0.05       0.05       25         OUTLET    
S71              0.01       0.1        0.05       0.05       25         OUTLET    
S72              0.01       0.1        0.05       0.05       25         OUTLET    
S73              0.01       0.1        0.05       0.05       25         OUTLET    
S74              0.01       0.1        0.05       0.05       25         OUTLET    
S75              0.01       0.1        0.05       0.05       25         OUTLET    
S76              0.01       0.1        0.05       0.05       25         OUTLET    
S77              0.01       0.1        0.05       0.05       25         OUTLET    
S78              0.01       0.1        0.05       0.05       25         OUTLET    
S79              0.01       0.1        0.05       0.05       25         OUTLET    
S80              0.01       0.1        0.05       0.05       25         OUTLET    
S81              0.01       0.1        0.05       0.05       25         OUTLET    
S81bis           0.01       0.1        0.05       0.05       25         OUTLET    
S82              0.01       0.1        0.05       0.05       25         OUTLET    
S83              0.01       0.1        0.05       0.05       25         OUTLET    
S84              0.01       0.1        0.05       0.05       25         OUTLET    
S85              0.01       0.1        0.05       0.05       25         OUTLET    
S86              0.01       0.1        0.05       0.05       25         OUTLET    
S87              0.01       0.1        0.05       0.05       25         OUTLET    
S88              0.01       0.1        0.05       0.05       25         OUTLET    
S89              0.01       0.1        0.05       0.05       25         OUTLET    
S90              0.01       0.1        0.05       0.05       25         OUTLET    
S91              0.01       0.1        0.05       0.05       25         OUTLET    
S92              0.01       0.1        0.05       0.05       25         OUTLET    
S93              0.01       0.1        0.05       0.05       25         OUTLET    
S94              0.01       0.1        0.05       0.05       25         OUTLET    
S95              0.01       0.1        0.05       0.05       25         OUTLET    
S96              0.01       0.1        0.05       0.05       25         OUTLET    
S97              0.01       0.1        0.05       0.05       25         OUTLET    
S98              0.01       0.1        0.05       0.05       25         OUTLET    
S99              0.01       0.1        0.05       0.05       25         OUTLET    
S100             0.01       0.1        0.05       0.05       25         OUTLET    
S101             0.01       0.1        0.05       0.05       25         OUTLET    
S102             0.01       0.1        0.05       0.05       25         OUTLET    
S103             0.01       0.1        0.05       0.05       25         OUTLET    
S104             0.01       0.1        0.05       0.05       25         OUTLET    
S105             0.01       0.1        0.05       0.05       25         OUTLET    
S106             0.01       0.1        0.05       0.05       25         OUTLET    
S107             0.01       0.1        0.05       0.05       25         OUTLET    
S108             0.01       0.1        0.05       0.05       25         OUTLET    
S109             0.01       0.1        0.05       0.05       25         OUTLET    
S110             0.01       0.1        0.05       0.05       25         OUTLET    
S111             0.01       0.1        0.05       0.05       25         OUTLET    
S112             0.01       0.1        0.05       0.05       25         OUTLET    
S113             0.01       0.1        0.05       0.05       25         OUTLET    