[TITLE]
;;Project Title/Notes

[OPTIONS]
;;Option             Value
FLOW_UNITS           MGD
INFILTRATION         HORTON
FLOW_ROUTING         DYNWAVE
LINK_OFFSETS         DEPTH
MIN_SLOPE            0
ALLOW_PONDING        NO
SKIP_STEADY_STATE    NO

IGNORE_ROUTING       YES
START_DATE           05/17/1999
START_TIME           00:00:00
REPORT_START_DATE    05/17/1999
REPORT_START_TIME    00:00:00
END_DATE             05/18/1999
END_TIME             00:00:00
SWEEP_START          01/01
SWEEP_END            12/31
DRY_DAYS             0
REPORT_STEP          00:15:00
WET_STEP             00:05:00
DRY_STEP             01:00:00
ROUTING_STEP         0:00:30 

INERTIAL_DAMPING     PARTIAL
NORMAL_FLOW_LIMITED  BOTH
FORCE_MAIN_EQUATION  H-W
VARIABLE_STEP        0.75
LENGTHENING_STEP     0
MIN_SURFAREA         0
MAX_TRIALS           0
HEAD_TOLERANCE       0
SYS_FLOW_TOL         5
LAT_FLOW_TOL         5
MINIMUM_STEP         0.5
THREADS              1

[EVAPORATION]
;;Data Source    Parameters
;;-------------- ----------------
CONSTANT         0
DRY_ONLY         NO

[RAINGAGES]
;;Name           Format    Interval SCF      Source    
;;-------------- --------- ------ ------ ----------
1                VOLUME    1:00     1        TIMESERIES RainSeries1     

[SUBCATCHMENTS]
;;Name           Rain Gage        Outlet           Area     %Imperv  Width    %Slope   CurbLen  SnowPack        
;;-------------- ---------------- ---------------- -------- -------- -------- -------- -------- ----------------
; Name Raingage Outlet Area %Imperv Width Slope Clength
035a             1                S75J             60.790094 15       4450     8.9      0                        
035b             1                S75J             2.680004 21       380      2.4      0                        
039a             1                S75J             73.350113 47       3000     12.9     0                        
040a1            1                S75J             18.080028 38       850      13       0                        
040a2            1                S75J             46.750072 38       5000     13       0                        
040b             1                S75J             125.460194 38       9000     13       0                        
040c             1                S75J             104.200161 38       4000     3        0                        
040d             1                S75J             21.280033 38       2600     8        0                        
040e             1                S75J             41.640064 38       4200     13       0                        
040f             1                S75J             37.630058 38       4600     11       0                        
040g             1                S75J             18.180028 38       3000     18       0                        
250a             1                S75J             18.200028 25       1400     5        0                        
BBa              1                S75J             32.69005 35       1700     4.5      0                        
BBb              1                S75J             259.570401 10       3800     10.9     0                        
BBc              1                S75J             64.270099 3        4600     2        0                        
BBd              1                S75J             5.020008 32       800      17.3     0                        
BBe1             1                S75J             6.61001  59       2100     12       0                        
BBe2             1                S75J             6.61001  59       2100     12       0                        
BBf1             1                S75J             3.750006 40       1300     10.2     0                        
BBf2             1                S75J             1.875003 40       680      10.2     0                        
BBf3             1                S75J             13.12502 40       4800     10.2     0                        
BBg1             1                S75J             40.482062 32.5     6120     3.7      0                        
BBg2             1                S75J             4.498007 32.5     680      3.7      0                        
BBh              1                S75J             24.470038 48.6     5300     12.1     0                        
BBi              1                S75J             16.580026 31       3400     12.3     0                        
BBj              1                S75J             13.520021 17       2800     21.9     0                        
BBk              1                S75J             18.610029 42       2600     1.5      0                        
BBl              1                S75J             25.510039 43       1760     1        0                        
BBm              1                S75J             29.340045 17       2100     1        0                        
BBn              1                S75J             15.280024 5        2920     21.3     0                        
BBo              1                S75J             19.14003 2        3160     3.6      0                        
BBp              1                S75J             10.950017 3        4000     4.9      0                        
BBq              1                S75J             20.440032 21       2500     2.2      0                        
BBr              1                S75J             61.070094 11       8000     2.1      0                        
DILLEa           1                S75J             30.420047 5.5      243      6        0                        
DILLEb           1                S75J             31.710049 2.5      132      7        0                        
DILLEc           1                S75J             11.120017 6.2      204      1        0                        
DS0150a          1                S75J             158.310244 15       5        1        0                        
DS0150a!         1                S75J             158.310244 15       50       1        0                        
DS0150a!!        1                S75J             158.310244 15       500      1        0                        
DS0150a!!!       1                S75J             158.310244 15       5000     1        0                        
DS0150a!!!!      1                S75J             158.310244 15       50000    1        0                        
DS0150a!!!!!     1                S75J             158.310244 15       500000   1        0                        
DS0150a!!!!!!    1                S75J             158.310244 15       5000000  1        0                        
DS0150a!!!!!!!   1                S75J             158.310244 15       50000000 1        0                        
DS0150b          1                S75J             645.219996 15       20       1        0                        
DS0150c          1                S75J             253.390391 15       10       1        0                        
DSO145           1                S75J             116.75018 15       20       3        0                        
DSO147           1                S75J             188.480291 15       10       2        0                        
DSO154           1                S75J             8.100013 10       2        4        0                        
DSO155D          1                S75J             158.700245 15       10       2        0                        
DSO159           1                S75J             324.0395 10       10       2        0                        
KG00040          1                S75J             0        0        0.1      0        0                        
KG01025          1                S75J             0        0        0.1      0        0                        
KG02030          1                S75J             0        0        0.1      0        0                        
KG03020_225_225  1                S75J             0        0        0.1      0        0                        
KG05030          1                S75J             0        0        0.1      0        0                        
KG06020          1                S75J             0        0        0.1      0        0                        
MC00300_160_160  1                S75J             0        0        0.1      0        0                        
MC1Aa            1                S75J             17.120026 40       200      5        0                        
MC32             1                S75J             287.000443 42       5000     1        0                        
MC32X            1                S75J             287.000443 15       500      0.5      0                        
MC33             1                S75J             539.999834 50.4     6000     1        0                        
MC33X            1                S75J             539.999834 20       400      0.5      0                        
MC47a            1                S75J             59.680092 42       800      0.7      0                        
MC47b            1                S75J             30.320047 42       800      0.7      0                        
MRa              1                S75J             118.870184 15       7100     5        0                        
MRb              1                S75J             5.400008 98       2300     1        0                        
MRc              1                S75J             18.680029 96       8000     8.7      0                        
MRd              1                S75J             4.300007 17.6     360      8        0                        
MRe              1                S75J             27.760043 20       4600     20.6     0                        
MRf              1                S75J             15.230024 22       3800     2        0                        
MRg              1                S75J             44.250068 7        4000     1.1      0                        
MRh              1                S75J             6.80001  13       2200     6.3      0                        
RAA0075          1                S75J             0        0        0.1      0        0                        
RAA1010          1                S75J             0        0        0.1      0        0                        
RAA2010          1                S75J             0        0        0.1      0        0                        
S04a             1                S75J             4.710007 80       882      5        0                        
S10a             1                S75J             17.280027 40       1750     2.6      0                        
S10b             1                S75J             50.540078 37       2700     3        0                        
S10c             1                S75J             39.02006 42       2700     3        0                        
S10d             1                S75J             21.560033 34       3060     2        0                        
S10e             1                S75J             37.830058 34       2340     1        0                        
S10f             1                S75J             34.820054 37       3380     2        0                        
S10g             1                S75J             56.760088 37       3550     0.3      0                        
S10h             1                S75J             50.980079 41       3370     2        0                        
S10i             1                S75J             42.300065 35       4300     3        0                        
S10j             1                S75J             25.65004 48       880      2        0                        
S10k             1                S75J             56.060087 28       3460     3        0                        
S10l1            1                S75J             28.870045 43       2560     1.3      0                        
S10l2            1                S75J             28.870045 43       2560     1.3      0                        
S11a             1                S75J             26.670041 35       2800     3        0                        
S11b             1                S75J             35.790055 58       4840     2        0                        
S12a             1                S75J             4.870008 19       1300     9        0                        
S14a1            1                S75J             25.160039 33       1700     6        0                        
S14a2            1                S75J             37.000057 33       1700     6        0                        
S14b             1                S75J             44.000068 42       6400     4        0                        
S14c             1                S75J             49.730077 36       4100     2        0                        
S14d             1                S75J             0        0        0.1      0        0                        
S14e1            1                S75J             10.010015 27       2080     3        0                        
S14e2            1                S75J             10.020015 27       2080     3        0                        
S18a             1                S75J             4.990008 26       850      6        0                        
S1a              1                S75J             4.600007 48       750      1.2      0                        
S1Aa             1                S75J             37.360058 44       2000     1        0                        
S1Ab             1                S75J             26.290041 42       2100     1.2      0                        
S1b              1                S75J             38.71006 44       990      1.6      0                        
S1c              1                S75J             15.850024 43       2160     1.1      0                        
S1C_29_29        1                S75J             0        0        0.1      0        0                        
S1d              1                S75J             36.690057 42       3360     1.4      0                        
S20a1            1                S75J             5.000008 29       750      4        0                        
S20a2            1                S75J             53.340082 29       5450     4        0                        
S20Aa            1                S75J             28.010043 26       2025     1.2      0                        
S20Ab            1                S75J             41.930065 32       5400     1.5      0                        
S20Ac            1                S75J             34.360053 22       2850     2        0                        
S20Ad1           1                S75J             24.810038 8        650      2        0                        
S20Ad2           1                S75J             25.63004 8        1320     2        0                        
S20Ae            1                S75J             53.190082 24       1880     11       0                        
S21a             1                S75J             11.290017 55       670      3        0                        
S28a             1                S75J             24.540038 26.4     5730     3        0                        
S29a             1                S75J             6.24001  26.4     2300     3        0                        
S2a              1                S75J             3.390005 65       720      7        0                        
S2Aa             1                S75J             33.390052 25       4370     1.2      0                        
S2Ab             1                S75J             37.230057 37       1300     1        0                        
S2Ac             1                S75J             42.510066 38       3970     2.7      0                        
S2b              1                S75J             33.170051 34       4740     1        0                        
S2c              1                S75J             25.360039 38       1050     1        0                        
S2d              1                S75J             17.150026 37.6     3100     1        0                        
S2e              1                S75J             16.650026 32.8     1500     1        0                        
S2f              1                S75J             25.76004 34.4     1100     1.3      0                        
S2i              1                S75J             0.940001 43       470      1.5      0                        
S30a             1                S75J             12.89002 16.8     2400     3        0                        
S30a1            1                S75J             13.20002 26.4     1000     3        0                        
S30a2            1                S75J             13.20002 26.4     1000     3        0                        
S30a3            1                S75J             13.20002 26.4     1000     3        0                        
S30a4            1                S75J             13.20002 26.4     1000     3        0                        
S30a5            1                S75J             13.20002 26.4     1000     3        0                        
S38a             1                S75J             1.650003 33       830      5        0                        
S3a              1                S75J             15.070023 44       2340     7        0                        
S41a             1                S75J             19.61003 19.2     2350     7        0                        
S42a1            1                S75J             8.400013 26.4     595      3.5      0                        
S42a2            1                S75J             8.410013 26.4     595      3.5      0                        
S43a             1                S75J             6.24001  26.4     1640     3        0                        
S44a             1                S75J             4.870008 41       1210     2        0                        
S44aX            1                S75J             4.870008 41       12.1     2        0                        
S45a             1                S75J             13.23002 35       1370     3        0                        
S45Aa            1                S75J             24.000037 40       1500     1        0                        
S45Ab            1                S75J             166.042256 34       2250     1        0                        
S45aX            1                S75J             13.23002 35       13.7     3        0                        
S46a             1                S75J             8.930014 42       1020     3        0                        
S46aX            1                S75J             8.930014 42       10.2     3        0                        
S47a             1                S75J             14.250022 34.65    680      2        0                        
S47b             1                S75J             8.100013 39       500      4        0                        
S47x             1                S75J             14.250022 10       2        2        0                        
S48a             1                S75J             59.380092 34       3250     2        0                        
S48b             1                S75J             36.780057 37       2900     2        0                        
S48c             1                S75J             47.440073 37       3300     2        0                        
S48d             1                S75J             44.880069 35       3900     2        0                        
S49a             1                S75J             27.020312 29.250707 1870     3        0                        
S49b             1                S75J             32.48005 27       1400     2        0                        
S49c             1                S75J             40.230464 29.250707 1700     2        0                        
S49d             1                S75J             17.020196 29.250707 5760     3        0                        
S4a              1                S75J             41.720064 33       1410     1.4      0                        
S4b              1                S75J             40.940063 33       2110     3        0                        
S50a             1                S75J             7.900012 39       2410     2.5      0                        
S52a             1                S75J             17.080026 30       1890     2        0                        
S52F             1                S75J             0        0        0.1      0        0                        
S54a             1                S75J             25.490039 43       2950     1        0                        
S54b             1                S75J             45.910071 36       3675     2.4      0                        
S54c             1                S75J             46.460072 42       1530     2.4      0                        
S54d             1                S75J             39.880062 23       1050     2        0                        
S54e             1                S75J             37.580058 38.5     2840     2.8      0                        
S54f             1                S75J             32.38005 33       690      2.4      0                        
S54g             1                S75J             35.320055 33       800      2.2      0                        
S54h             1                S75J             17.750027 33       1200     4.8      0                        
S54i             1                S75J             8.850014 29       1700     2.5      0                        
S54j1            1                S75J             14.200164 35.750642 1500     3.3      0                        
S54j2            1                S75J             14.200164 35.750642 1500     3.3      0                        
S54x             1                S75J             318.020491 10       50       7.6      0                        
S59a             1                S75J             45.65007 43       2780     1        0                        
S59b             1                S75J             51.000079 44       1670     1.9      0                        
S59c             1                S75J             35.950055 42       1900     2.3      0                        
S5a              1                S75J             5.550009 63       1540     21       0                        
S5b              1                S75J             3.890006 80       900      2        0                        
S60a             1                S75J             33.620052 43       3460     1.8      0                        
S60b             1                S75J             33.930052 52       1900     2.3      0                        
S60c             1                S75J             39.03006 34       800      2.6      0                        
S60d             1                S75J             37.700058 38       2060     1.5      0                        
S60x             1                S75J             174.69027 10       20       4        0                        
S61a             1                S75J             2.860004 65       630      3.2      0                        
S61b             1                S75J             9.930015 43       1000     1        0                        
S62a             1                S75J             0.480001 54.4     320      6.8      0                        
S64a             1                S75J             22.880035 42       2820     2.7      0                        
S64b             1                S75J             16.990026 38       2200     2.3      0                        
S64c             1                S75J             3.770006 33       330      4.9      0                        
S64d             1                S75J             15.000023 38       2200     2.3      0                        
S65a             1                S75J             34.290053 37       6920     2.3      0                        
S65b1            1                S75J             31.780049 30       2240     1.7      0                        
S65b2            1                S75J             21.180033 30       2240     1.7      0                        
S65c1            1                S75J             36.050056 49       4400     1.6      0                        
S65c2            1                S75J             17.750027 49       4400     1.6      0                        
S66a             1                S75J             3.510005 32       780      4.9      0                        
S66b             1                S75J             29.010045 33       3940     3.5      0                        
S66c             1                S75J             35.200054 37       6700     2        0                        
S66d             1                S75J             43.990068 42       6050     2.3      0                        
S66e             1                S75J             43.730068 48       2140     2.4      0                        
S66f             1                S75J             49.220076 39       3560     3.3      0                        
S66g             1                S75J             37.410058 39       2650     3        0                        
S66h             1                S75J             54.850085 40       1340     1        0                        
S66i             1                S75J             43.450067 36       2600     1.5      0                        
S66j             1                S75J             51.460079 36       1430     2.5      0                        
S66k             1                S75J             15.610024 39       3100     2        0                        
S66l             1                S75J             23.960037 36       1080     2.6      0                        
S66m             1                S75J             50.470078 36       1340     2.7      0                        
S66X             1                S75J             478.359738 20       500      0.5      0                        
S67a             1                S75J             51.490079 33       4320     2.1      0                        
S69a             1                S75J             18.400028 31       1500     3.6      0                        
S6a              1                S75J             13.26002 52       2090     1.5      0                        
S70a             1                S75J             24.820038 39       2660     2.6      0                        
S70b             1                S75J             33.840052 38       3110     2.4      0                        
S71a             1                S75J             29.620046 38       1980     2.4      0                        
S71b             1                S75J             31.270048 38       2190     1.6      0                        
S72a             1                S75J             24.580038 34.3     1000     2        0                        
S72b             1                S75J             43.690067 35.7     3780     1        0                        
S72x             1                S75J             24.580038 7.4      5        3.3      0                        
S73a             1                S75J             5.780009 41       1730     1.5      0                        
S73b             1                S75J             45.890071 40       2280     1.5      0                        
S74a             1                S75J             5.400008 32       1560     1.4      0                        
S74Aa            1                S75J             1.990003 43       380      6.9      0                        
S75b             1                S75J             12.180019 34       2070     1.7      0                        
S75c             1                S75J             36.900057 35       1420     1        0                        
S75d             1                S75J             33.890052 46       2900     0.7      0                        
S77a             1                S75J             43.920068 31       3530     1.7      0                        
S77b             1                S75J             62.090096 38       2890     2.2      0                        
S79a             1                S75J             42.220065 33       1750     1.8      0                        
S79b             1                S75J             46.310071 33       2900     1.3      0                        
S7a              1                S75J             14.350022 34       990      2        0                        
S80a             1                S75J             25.78004 12       219      7        0                        
S80Aa            1                S75J             58.62009 42       3840     1.4      0                        
S80Ab            1                S75J             8.680013 40       2000     1.6      0                        
S81a             1                S75J             8.960014 30       2390     3        0                        
S82a1            1                S75J             13.21002 4        100      4        0                        
S82a2            1                S75J             77.130119 15       2720     4        0                        
S83a             1                S75J             45.60007 4.5      106      5        0                        
S83b             1                S75J             39.210061 2.3      150      4        0                        
S83c             1                S75J             13.770021 2.9      251      9        0                        
S83X             1                S75J             98.580152 0.3      5        0.5      0                        
S8a              1                S75J             26.03004 58       920      1.1      0                        
S8b              1                S75J             3.640006 35       820      8        0                        
S9a              1                S75J             33.560052 43       6880     4        0                        