[TITLE]
;;Project Title/Notes
Scenario Run :  100YR

[OPTIONS]
;;Option             Value
FLOW_UNITS           CFS
INFILTRATION         HORTON
FLOW_ROUTING         DYNWAVE
LINK_OFFSETS         DEPTH
MIN_SLOPE            0
ALLOW_PONDING        NO
SKIP_STEADY_STATE    NO

START_DATE           04/25/2005
START_TIME           00:00:00
REPORT_START_DATE    04/25/2005
REPORT_START_TIME    00:00:00
END_DATE             04/25/2005
END_TIME             04:00:00
SWEEP_START          01/01
SWEEP_END            12/31
DRY_DAYS             0.000000
REPORT_STEP          00:01:00
WET_STEP             00:01:00
DRY_STEP             00:15:00
ROUTING_STEP         0:00:10 

INERTIAL_DAMPING     NONE
NORMAL_FLOW_LIMITED  SLOPE
FORCE_MAIN_EQUATION  H-W
VARIABLE_STEP        0.00
LENGTHENING_STEP     5
MIN_SURFAREA         12.557
MAX_TRIALS           8
HEAD_TOLERANCE       0.001
SYS_FLOW_TOL         5
LAT_FLOW_TOL         5
MINIMUM_STEP         0.5
THREADS              1

[EVAPORATION]
;;Data Source    Parameters
;;-------------- ----------------
CONSTANT         4.000000
DRY_ONLY         NO

[RAINGAGES]
;;Name           Format    Interval SCF      Source    
;;-------------- --------- ------ ------ ----------
1                VOLUME    0.083333 1.000000 TIMESERIES 5YR             

[SUBCATCHMENTS]
;;Name           Rain Gage        Outlet           Area     %Imperv  Width    %Slope   CurbLen  SnowPack        
;;-------------- ---------------- ---------------- -------- -------- -------- -------- -------- ----------------
100              1                15               0.253400 30.000000 30.000000 0.050000 0.000000                 
101              1                82               0.333200 30.000000 40.000000 0.025000 0.000000                 
102              1                84               0.771500 25.000000 65.000000 0.029170 0.000000                 
103              1                86               0.809400 30.000000 95.000000 0.038890 0.000000                 
105              1                41               1.594400 25.000000 90.000000 0.075000 0.000000                 
106              1                104              1.575800 25.000000 75.000000 0.044000 0.000000                 
110              1                107              1.686800 25.000000 120.000000 0.036360 0.000000                 
112              1                108              0.638800 25.000000 55.000000 0.075000 0.000000                 
113              1                109              1.379100 25.000000 60.000000 0.086960 0.000000                 
114              1                48               0.745300 25.000000 60.000000 0.029330 0.000000                 
115              1                183              0.953900 25.000000 60.000000 0.030000 0.000000                 
116              1                183              0.819100 25.000000 65.000000 0.026640 0.000000                 
117              1                173              0.483000 25.000000 60.000000 0.057140 0.000000                 
118              1                180              0.695900 25.000000 65.000000 0.071430 0.000000                 
119              1                43               1.318200 25.000000 65.000000 0.104550 0.000000                 
120              1                44               0.805200 25.000000 65.000000 0.093330 0.000000                 
121              1                181              0.782700 25.000000 80.000000 0.045000 0.000000                 
122              1                182              0.649800 25.000000 70.000000 0.047270 0.000000                 
123              1                45               0.381400 25.000000 45.000000 0.001140 0.000000                 
124              1                45               0.386300 25.000000 40.000000 0.050000 0.000000                 
125              1                47               1.390800 25.000000 50.000000 0.023160 0.000000                 
126              1                188              0.304500 25.000000 40.000000 0.035710 0.000000                 
127              1                188              0.504800 25.000000 90.000000 0.043480 0.000000                 
128              1                187              1.176600 25.000000 60.000000 0.036360 0.000000                 
129              1                189              1.062000 25.000000 90.000000 0.035560 0.000000                 
130              1                46               0.785800 25.000000 40.000000 0.020780 0.000000                 
131              1                186              1.060400 25.000000 60.000000 0.040000 0.000000                 
132              1                185              1.015500 25.000000 60.000000 0.043640 0.000000                 
133              1                184              1.036900 25.000000 60.000000 0.040000 0.000000                 
134              1                50               0.346000 25.000000 90.000000 0.050000 0.000000                 
135              1                50               0.469400 25.000000 40.000000 0.034290 0.000000                 
136              1                54               0.326700 25.000000 40.000000 0.032000 0.000000                 
137              1                49               0.238000 25.000000 35.000000 0.048000 0.000000                 
138              1                49               0.710800 25.000000 70.000000 0.080000 0.000000                 
139              1                55               1.279900 25.000000 80.000000 0.015380 0.000000                 
140              1                53               1.257900 25.000000 80.000000 0.024620 0.000000                 
141              1                51               1.083300 25.000000 60.000000 0.034380 0.000000                 
142              1                60               0.573900 25.000000 80.000000 0.029270 0.000000                 
143              1                74               0.357400 25.000000 80.000000 0.010000 0.000000                 
144              1                194              1.142200 25.000000 90.000000 0.036000 0.000000                 
145              1                193              0.793200 25.000000 65.000000 0.029090 0.000000                 
146              1                192              0.875800 25.000000 65.000000 0.032730 0.000000                 
147              1                191              0.872700 25.000000 65.000000 0.029090 0.000000                 
148              1                190              0.896400 25.000000 65.000000 0.025450 0.000000                 
149              1                57               0.409900 25.000000 40.000000 0.036360 0.000000                 
150              1                195              1.176900 25.000000 90.000000 0.026000 0.000000                 
151              1                196              0.777900 25.000000 65.000000 0.026000 0.000000                 
152              1                197              0.844100 25.000000 65.000000 0.024000 0.000000                 
153              1                59               0.799000 25.000000 65.000000 0.028000 0.000000                 
154              1                198              0.844500 25.000000 65.000000 0.024000 0.000000                 
155              1                58               0.852900 25.000000 65.000000 0.020000 0.000000                 
156              1                60               0.548800 25.000000 35.000000 0.025860 0.000000                 
157              1                206              2.120000 25.000000 80.000000 0.020000 0.000000                 
158              1                204              2.040000 25.000000 80.000000 0.020000 0.000000                 
159              1                65               0.800000 25.000000 50.000000 0.010000 0.000000                 
160              1                207              0.590000 25.000000 75.000000 0.020000 0.000000                 
161              1                66               0.760000 25.000000 90.000000 0.010000 0.000000                 
162              1                67               1.250000 25.000000 70.000000 0.020000 0.000000                 
163              1                67               1.050000 25.000000 65.000000 0.010000 0.000000                 
164              1                203              1.240600 25.000000 65.000000 0.021430 0.000000                 
165              1                199              0.923100 25.000000 65.000000 0.018000 0.000000                 
166              1                200              0.913400 25.000000 65.000000 0.016000 0.000000                 
167              1                205              0.422700 25.000000 65.000000 0.008000 0.000000                 
168              1                71               1.200100 25.000000 65.000000 0.016670 0.000000                 
169              1                72               1.947400 25.000000 130.000000 0.020000 0.000000                 
170              1                72               0.656800 25.000000 110.000000 0.025000 0.000000                 
171              1                72               0.774600 25.000000 90.000000 0.020000 0.000000                 
172              1                62               1.171100 25.000000 65.000000 0.020000 0.000000                 
174              1                201              0.990400 25.000000 65.000000 0.016000 0.000000                 
175              1                202              0.817000 25.000000 65.000000 0.015000 0.000000                 
176              1                63               0.413900 25.000000 35.000000 0.015000 0.000000                 
177              1                59               0.226100 25.000000 35.000000 0.020000 0.000000                 
178              1                198              0.200100 25.000000 35.000000 0.028000 0.000000                 
179              1                58               0.214300 25.000000 35.000000 0.033330 0.000000                 
87               1                5                2.550000 55.000000 100.000000 0.050000 0.000000                 
88               1                12               1.701000 30.000000 70.000000 0.050000 0.000000                 
89               1                1                1.584600 30.000000 70.000000 0.047500 0.000000                 
90               1                82               1.117400 30.000000 65.000000 0.047220 0.000000                 
91               1                83               1.165400 30.000000 65.000000 0.042500 0.000000                 
92               1                84               1.679900 30.000000 70.000000 0.033300 0.000000                 
93               1                3                0.279900 30.000000 40.000000 0.037500 0.000000                 
94               1                2                0.292800 30.000000 40.000000 0.037500 0.000000                 
95               1                1                0.329100 30.000000 40.000000 0.037500 0.000000                 
96               1                17               0.288400 30.000000 30.000000 0.038890 0.000000                 
97               1                13               1.115100 30.000000 60.000000 0.024320 0.000000                 
98               1                85               0.437800 30.000000 60.000000 0.040910 0.000000                 
99               1                14               0.253400 30.000000 30.000000 0.050000 0.000000                 

[SUBAREAS]
;;Subcatchment   N-Imperv   N-Perv     S-Imperv   S-Perv     PctZero    RouteTo    PctRouted 
;;-------------- ---------- ---------- ---------- ---------- ---------- ---------- ----------
100              0.014000   0.200000   0.100000   0.050000   25.000000  OUTLET    
101              0.014000   0.200000   0.100000   0.050000   25.000000  OUTLET    
102              0.014000   0.200000   0.100000   0.050000   25.000000  OUTLET    
103              0.014000   0.200000   0.100000   0.050000   25.000000  OUTLET    
105              0.014000   0.200000   0.100000   0.050000   25.000000  OUTLET    
106              0.014000   0.200000   0.100000   0.050000   25.000000  OUTLET    
110              0.014000   0.200000   0.100000   0.050000   25.000000  OUTLET    
112              0.014000   0.200000   0.100000   0.050000   25.000000  OUTLET    
113              0.014000   0.200000   0.100000   0.050000   25.000000  OUTLET    
114              0.014000   0.200000   0.100000   0.050000   25.000000  OUTLET    
115              0.014000   0.200000   0.100000   0.050000   25.000000  OUTLET    
116              0.014000   0.200000   0.100000   0.050000   25.000000  OUTLET    
117              0.014000   0.200000   0.100000   0.050000   25.000000  OUTLET    
118              0.014000   0.200000   0.100000   0.050000   25.000000  OUTLET    
119              0.014000   0.200000   0.100000   0.050000   25.000000  OUTLET    
120              0.014000   0.200000   0.100000   0.050000   25.000000  OUTLET    
121              0.014000   0.200000   0.100000   0.050000   25.000000  OUTLET    
122              0.014000   0.200000   0.100000   0.050000   25.000000  OUTLET    
123              0.014000   0.200000   0.100000   0.050000   25.000000  OUTLET    
124              0.014000   0.200000   0.100000   0.050000   25.000000  OUTLET    
125              0.014000   0.200000   0.100000   0.050000   25.000000  OUTLET    
126              0.014000   0.200000   0.100000   0.050000   25.000000  OUTLET    
127              0.014000   0.200000   0.100000   0.050000   25.000000  OUTLET    
128              0.014000   0.200000   0.100000   0.050000   25.000000  OUTLET    
129              0.014000   0.200000   0.100000   0.050000   25.000000  OUTLET    
130              0.014000   0.200000   0.100000   0.050000   25.000000  OUTLET    
131              0.014000   0.200000   0.100000   0.050000   25.000000  OUTLET    
132              0.014000   0.200000   0.100000   0.050000   25.000000  OUTLET    
133              0.014000   0.200000   0.100000   0.050000   25.000000  OUTLET    
134              0.014000   0.200000   0.100000   0.050000   25.000000  OUTLET    
135              0.014000   0.200000   0.100000   0.050000   25.000000  OUTLET    
136              0.014000   0.200000   0.100000   0.050000   25.000000  OUTLET    
137              0.014000   0.200000   0.100000   0.050000   25.000000  OUTLET    
138              0.014000   0.200000   0.100000   0.050000   25.000000  OUTLET    
139              0.014000   0.200000   0.100000   0.050000   25.000000  OUTLET    
140              0.014000   0.200000   0.100000   0.050000   25.000000  OUTLET    
141              0.014000   0.200000   0.100000   0.050000   25.000000  OUTLET    
142              0.014000   0.200000   0.100000   0.050000   25.000000  OUTLET    
143              0.014000   0.200000   0.100000   0.050000   25.000000  OUTLET    
144              0.014000   0.200000   0.100000   0.050000   25.000000  OUTLET    
145              0.014000   0.200000   0.100000   0.050000   25.000000  OUTLET    
146              0.014000   0.200000   0.100000   0.050000   25.000000  OUTLET    
147              0.014000   0.200000   0.100000   0.050000   25.000000  OUTLET    
148              0.014000   0.200000   0.100000   0.050000   25.000000  OUTLET    
149              0.014000   0.200000   0.100000   0.050000   25.000000  OUTLET    
150              0.014000   0.200000   0.100000   0.050000   25.000000  OUTLET    
151              0.014000   0.200000   0.100000   0.050000   25.000000  OUTLET    
152              0.014000   0.200000   0.100000   0.050000   25.000000  OUTLET    
153              0.014000   0.200000   0.100000   0.050000   25.000000  OUTLET    
154              0.014000   0.200000   0.100000   0.050000   25.000000  OUTLET    
155              0.014000   0.200000   0.100000   0.050000   25.000000  OUTLET    
156              0.014000   0.200000   0.100000   0.050000   25.000000  OUTLET    
157              0.010000   0.200000   0.100000   0.050000   25.000000  OUTLET    
158              0.010000   0.200000   0.100000   0.050000   25.000000  OUTLET    
159              0.010000   0.200000   0.100000   0.050000   25.000000  OUTLET    
160              0.010000   0.200000   0.100000   0.050000   25.000000  OUTLET    
161              0.010000   0.200000   0.100000   0.050000   25.000000  OUTLET    
162              0.010000   0.200000   0.100000   0.050000   25.000000  OUTLET    
163              0.010000   0.200000   0.100000   0.050000   25.000000  OUTLET    
164              0.014000   0.200000   0.100000   0.050000   25.000000  OUTLET    
165              0.014000   0.200000   0.100000   0.050000   25.000000  OUTLET    
166              0.014000   0.200000   0.100000   0.050000   25.000000  OUTLET    
167              0.014000   0.200000   0.100000   0.050000   25.000000  OUTLET    
168              0.014000   0.200000   0.100000   0.050000   25.000000  OUTLET    
169              0.014000   0.200000   0.100000   0.050000   25.000000  OUTLET    
170              0.014000   0.200000   0.100000   0.050000   25.000000  OUTLET    
171              0.014000   0.200000   0.100000   0.050000   25.000000  OUTLET    
172              0.014000   0.200000   0.100000   0.050000   25.000000  OUTLET    
174              0.014000   0.200000   0.100000   0.050000   25.000000  OUTLET    
175              0.014000   0.200000   0.100000   0.050000   25.000000  OUTLET    
176              0.014000   0.200000   0.100000   0.050000   25.000000  OUTLET    
177              0.014000   0.200000   0.100000   0.050000   25.000000  OUTLET    
178              0.014000   0.200000   0.100000   0.050000   25.000000  OUTLET    
179              0.014000   0.200000   0.100000   0.050000   25.000000  OUTLET    
87               0.014000   0.200000   0.100000   0.050000   25.000000  OUTLET    
88               0.014000   0.200000   0.100000   0.050000   25.000000  OUTLET    
89               0.014000   0.200000   0.100000   0.050000   25.000000  OUTLET    
90               0.014000   0.200000   0.100000   0.050000   25.000000  OUTLET    
91               0.014000   0.200000   0.100000   0.050000   25.000000  OUTLET    
92               0.014000   0.200000   0.100000   0.050000   25.000000  OUTLET    
93               0.014000   0.200000   0.100000   0.050000   25.000000  OUTLET    
94               0.014000   0.200000   0.100000   0.050000   25.000000  OUTLET    
95               0.014000   0.200000   0.100000   0.050000   25.000000  OUTLET    
96               0.014000   0.200000   0.100000   0.050000   25.000000  OUTLET    
97               0.014000   0.200000   0.100000   0.050000   25.000000  OUTLET    
98               0.014000   0.200000   0.100000   0.050000   25.000000  OUTLET    
99               0.014000   0.200000   0.100000   0.050000   25.000000  OUTLET    

[INFILTRATION]
;;Subcatchment   MaxRate    MinRate    Decay      DryTime    MaxInfil  
;;-------------- ---------- ---------- ---------- ---------- ----------
100              3.0        0.5        4          7          0         
101              3.0        0.5        4          7          0         
102              3.0        0.5        4          7          0         
103              3.0        0.5        4          7          0         
105              3.0        0.5        4          7          0         
106              3.0        0.5        4          7          0         
110              3.0        0.5        4          7          0         
112              3.0        0.5        4          7          0         
113              3.0        0.5        4          7          0         
114              3.0        0.5        4          7          0         
115              3.0        0.5        4          7          0         
116              3.0        0.5        4          7          0         
117              3.0        0.5        4          7          0         
118              3.0        0.5        4          7          0         
119              3.0        0.5        4          7          0         
120              3.0        0.5        4          7          0         
121              3.0        0.5        4          7          0         
122              3.0        0.5        4          7          0         
123              3.0        0.5        4          7          0         
124              3.0        0.5        4          7          0         
125              3.0        0.5        4          7          0         
126              3.0        0.5        4          7          0         
127              3.0        0.5        4          7          0         
128              3.0        0.5        4          7          0         
129              3.0        0.5        4          7          0         
130              3.0        0.5        4          7          0         
131              3.0        0.5        4          7          0         
132              3.0        0.5        4          7          0         
133              3.0        0.5        4          7          0         
134              3.0        0.5        4          7          0         
135              3.0        0.5        4          7          0         
136              3.0        0.5        4          7          0         
137              3.0        0.5        4          7          0         
138              3.0        0.5        4          7          0         
139              3.0        0.5        4          7          0         
140              3.0        0.5        4          7          0         
141              3.0        0.5        4          7          0         
142              3.0        0.5        4          7          0         
143              3.0        0.5        4          7          0         
144              3.0        0.5        4          7          0         
145              3.0        0.5        4          7          0         
146              3.0        0.5        4          7          0         
147              3.0        0.5        4          7          0         
148              3.0        0.5        4          7          0         
149              3.0        0.5        4          7          0         
150              3.0        0.5        4          7          0         
151              3.0        0.5        4          7          0         
152              3.0        0.5        4          7          0         
153              3.0        0.5        4          7          0         
154              3.0        0.5        4          7          0         
155              3.0        0.5        4          7          0         
156              3.0        0.5        4          7          0         
157              3.587500   0.071500   0.065500   16.100000  1.427500  
158              3.0        0.5        4          7          0         
159              3.0        0.5        4          7          0         
160              3.0        0.5        4          7          0         
161              3.0        0.5        4          7          0         
162              3.0        0.5        4          7          0         
163              3.0        0.5        4          7          0         
164              3.0        0.5        4          7          0         
165              3.0        0.5        4          7          0         
166              3.0        0.5        4          7          0         
167              3.0        0.5        4          7          0         
168              3.0        0.5        4          7          0         
169              3.0        0.5        4          7          0         
170              3.0        0.5        4          7          0         
171              3.0        0.5        4          7          0         
172              3.0        0.5        4          7          0         
174              3.0        0.5        4          7          0         
175              3.0        0.5        4          7          0         
176              3.0        0.5        4          7          0         
177              3.0        0.5        4          7          0         
178              3.0        0.5        4          7          0         
179              3.0        0.5        4          7          0         
87               3.0        0.5        4          7          0         
88               3.0        0.5        4          7          0         
89               3.0        0.5        4          7          0         
90               3.0        0.5        4          7          0         
91               3.0        0.5        4          7          0         
92               3.0        0.5        4          7          0         
93               3.0        0.5        4          7          0         
94               3.0        0.5        4          7          0         
95               3.0        0.5        4          7          0         
96               3.0        0.5        4          7          0         
97               3.0        0.5        4          7          0         
98               3.0        0.5        4          7          0         
99               3.0        0.5        4          7          0         

[AQUIFERS]
;;Name           Por    WP     FC     Ksat   Kslope Tslope ETu    ETs    Seep   Ebot   Egw    Umc    ETupat 
;;-------------- ------ ------ ------ ------ ------ ------ ------ ------ ------ ------ ------ ------ ------
AQUIFER-1        0.500000 0.150000 0.300000 0.500000 10.000000 15.000000 0.350000 14.000000 0.020000 0.000000 10.000000 0.300000       

[GROUNDWATER]
;;Subcatchment   Aquifer          Node             Esurf  A1     B1     A2     B2     A3     Dsw    Egwt   Ebot   Wgr    Umc   
;;-------------- ---------------- ---------------- ------ ------ ------ ------ ------ ------ ------ ------ ------ ------ ------

[JUNCTIONS]
;;Name           Elevation  MaxDepth   InitDepth  SurDepth   Aponded   
;;-------------- ---------- ---------- ---------- ---------- ----------
1                1552.250000 1.000000   0.000000   0.300000   0.000000  
104              1556.500000 2.000000   0.000000   0.000000   0.000000  
107              1558.000000 2.000000   0.000000   0.000000   0.000000  
108              1555.500000 2.000000   0.000000   0.000000   0.000000  
109              1548.500000 2.000000   0.000000   0.000000   0.000000  
111              1546.000000 2.000000   0.000000   0.000000   0.000000  
12               1551.500000 1.000000   0.000000   0.300000   0.000000  
13               1545.500000 1.000000   0.000000   0.300000   0.000000  
14               1545.500000 1.300000   0.000000   0.300000   0.000000  
15               1543.000000 1.750000   0.000000   0.300000   0.000000  
17               1549.500000 2.000000   0.000000   0.300000   0.000000  
173              1555.500000 2.000000   0.000000   0.000000   0.000000  
180              1553.750000 2.000000   0.000000   0.000000   0.000000  
181              1550.000000 2.000000   0.000000   0.000000   0.000000  
182              1545.000000 2.000000   0.000000   0.000000   0.000000  
183              1553.750000 2.000000   0.000000   0.000000   0.000000  
184              1537.000000 2.000000   0.000000   0.000000   0.000000  
185              1538.500000 2.000000   0.000000   0.000000   0.000000  
186              1540.000000 2.000000   0.000000   0.000000   0.000000  
187              1541.000000 2.000000   0.000000   0.000000   0.000000  
188              1546.000000 2.000000   0.000000   0.000000   0.000000  
189              1541.500000 2.000000   0.000000   0.000000   0.000000  
190              1531.000000 2.000000   0.000000   0.000000   0.000000  
191              1532.000000 2.000000   0.000000   0.000000   0.000000  
192              1533.000000 2.000000   0.000000   0.000000   0.000000  
193              1534.000000 2.000000   0.000000   0.000000   0.000000  
194              1534.500000 2.000000   0.000000   0.000000   0.000000  
195              1531.250000 2.000000   0.000000   0.000000   0.000000  
196              1530.750000 2.000000   0.000000   0.000000   0.000000  
197              1530.250000 2.000000   0.000000   0.000000   0.000000  
198              1527.750000 2.000000   0.000000   0.000000   0.000000  
199              1528.750000 2.000000   0.000000   0.000000   0.000000  
2                1551.000000 1.200000   0.000000   0.300000   0.000000  
200              1528.500000 2.000000   0.000000   0.000000   0.000000  
201              1525.000000 2.000000   0.000000   0.000000   0.000000  
202              1524.250000 2.000000   0.000000   0.000000   0.000000  
203              1528.250000 2.000000   0.000000   0.000000   0.000000  
204              1528.500000 2.000000   0.000000   0.000000   0.000000  
205              1527.250000 2.000000   0.000000   0.000000   0.000000  
206              1527.750000 2.000000   0.000000   0.000000   0.000000  
207              1526.250000 2.000000   0.000000   0.000000   0.000000  
208              1526.000000 2.000000   0.000000   0.000000   0.000000  
3                1548.500000 1.500000   0.000000   0.300000   0.000000  
41               1550.750000 1.000000   0.000000   0.300000   0.000000  
43               1547.500000 1.000000   0.000000   0.300000   0.000000  
44               1544.500000 1.200000   0.000000   0.000000   0.000000  
45               1543.750000 1.500000   0.000000   0.300000   0.000000  
46               1544.500000 1.000000   0.000000   0.300000   0.000000  
47               1549.500000 1.200000   0.000000   0.300000   0.000000  
48               1557.000000 1.000000   0.000000   0.300000   0.000000  
49               1538.000000 1.700000   0.000000   0.300000   0.000000  
5                1550.000000 1.000000   0.000000   0.300000   0.000000  