[TITLE]
;;Project Title/Notes

[OPTIONS]
;;Option             Value
FLOW_UNITS           CFS
INFILTRATION         HORTON
FLOW_ROUTING         DYNWAVE
LINK_OFFSETS         DEPTH
MIN_SLOPE            0
ALLOW_PONDING        NO
SKIP_STEADY_STATE    NO

IGNORE_SNOWMELT      YES
START_DATE           05/13/2011
START_TIME           22:00:00
REPORT_START_DATE    05/13/2011
REPORT_START_TIME    22:00:00
END_DATE             05/14/2011
END_TIME             23:00:00
SWEEP_START          01/01
SWEEP_END            12/31
DRY_DAYS             0
REPORT_STEP          00:15:00
WET_STEP             00:15:00
DRY_STEP             01:00:00
ROUTING_STEP         0:00:01 

INERTIAL_DAMPING     PARTIAL
NORMAL_FLOW_LIMITED  BOTH
FORCE_MAIN_EQUATION  H-W
VARIABLE_STEP        0.75
LENGTHENING_STEP     0
MIN_SURFAREA         50
MAX_TRIALS           0
HEAD_TOLERANCE       0
SYS_FLOW_TOL         5
LAT_FLOW_TOL         5
MINIMUM_STEP         0.5
THREADS              1

[EVAPORATION]
;;Data Source    Parameters
;;-------------- ----------------
CONSTANT         0.2
DRY_ONLY         NO

[RAINGAGES]
;;Name           Format    Interval SCF      Source    
;;-------------- --------- ------ ------ ----------
PG009            VOLUME    0:15     0        TIMESERIES PG009-TS        

[SUBCATCHMENTS]
;;Name           Rain Gage        Outlet           Area     %Imperv  Width    %Slope   CurbLen  SnowPack        
;;-------------- ---------------- ---------------- -------- -------- -------- -------- -------- ----------------
S-PE-57-36010    PG009            36010            24.33665 18       1650     0.03     0                        
S-PE-56-36009    PG009            36009            17.52869 18       1350     0.03     0                        
S-PE-27-36008    PG009            36008            38.12659 18       1950     0.03     0                        
S-PE-51-360071   PG009            360071           14.831   18       1400     0.03     0                        
S-PE--24-36007   PG009            36007            38.12659 18       1350     0.03     0                        
S-PE-50-36006    PG009            36006            12.90688 18       1400     0.03     0                        
S-PE-23-360071   PG009            360051           28.12792 18       1550     0.03     0                        
S-PE-49-360051   PG009            360051           13.06923 18       1300     0.03     0                        
S-PE-21-36005    PG009            36005            19.20128 18       1465     0.03     0                        
S-PE-48-360041   PG009            360041           15.4908  18       1520     0.03     0                        
S-PE-19-36004    PG009            36004            19.64644 18       1475     0.03     0                        
S-PE-41-360032   PG009            360032           25.71034 18       1600     0.03     0                        
S-PE-17-360031   PG009            360031           19.14529 18       1600     0.03     0                        
S-PE-40-360031   PG009            360031           9.6482   18       1300     0.03     0                        
S-PE-16-36003    PG009            36003            19.01426 18       1430     0.03     0                        
S-PE-39-36003    PG009            36003            20.08241 18       1300     0.03     0                        
S-PE-13-36003    PG009            36003            14.55723 18       1850     0.03     0                        
S-PE-11-360021   PG009            360021           14.12251 18       1300     0.03     0                        
S-PE-34-360021   PG009            360021           20.71801 18       1180     0.03     0                        
S-PE-11A-36002   PG009            36002            9.55196  18       1200     0.03     0                        
S-PE-31-36002    PG009            36002            6.99171  18       900      0.03     0                        
S-PE-30-360011   PG009            360011           26.04394 18       1450     0.03     0                        
S-PE-10-36001    PG009            36001            24.4333  18       1400     0.03     0                        
S-PE-9-36001     PG009            36001            6.62363  18       800      0.03     0                        
S-PE-29-36001    PG009            36001            8.37815  18       1100     0.03     0                        
S-PE-28-3600     PG009            3600             21.56197 18       1700     0.03     0                        
S-NWI-PE-28A-35701 PG009            35701            12.41196 18       950      0.03     0                        
S-NWI-PE-28B-357011 PG009            357011           8.11297  18       1400     0.03     0                        
S-NWI-PE-7-357021 PG009            357021           23.74084 18       1450     0.03     0                        
S-NWI-PE-8-35701 PG009            35701            11.19533 18       1300     0.03     0                        
S-SM-71A-3332    PG009            3332             22.98    45       1100     0.18     0                        
S-SM-58B-3332    PG009            3332             45.38    45       1500     0.18     0                        
S-SM-71-33351    PG009            33351            32.9158  45       1400     0.18     0                        
S-SM-58A-333521  PG009            333521           28.35919 45       1450     0.18     0                        
S-SM-70-333521   PG009            333521           17.43411 45       1430     0.18     0                        
S-SM-69-33352    PG009            33352            19.16388 45       1400     0.18     0                        
S-SM-55-3336     PG009            3336             20.39231 45       1550     0.18     0                        
S-SM-69A-3336    PG009            3336             17.76136 45       1650     0.18     0                        
S-SM-54-33373    PG009            33373            27.6598  45       1000     0.18     0                        
S-SM-62-33373    PG009            33373            35.87036 45       1500     0.18     0                        
S-SM-54A-33372   PG009            33372            25.78479 45       1000     0.18     0                        
S-SM-61A-33372   PG009            33372            17.07673 45       1550     0.18     0                        
S-SM-61-33381    PG009            33381            24.5622  45       1880     0.18     0                        
S-SM-53-33371    PG009            33371            14.99905 45       1400     0.18     0                        
S-SM-52-3338     PG009            3338             25.83965 45       1780     0.18     0                        
S-SM-60-3338     PG009            3338             24.48085 45       1700     0.18     0                        
S-SM-38-33393    PG009            33393            20.19287 45       1500     0.18     0                        
S-SM-37-33392    PG009            33392            22.5523  45       1550     0.18     0                        
S-SM-45-33392    PG009            33392            38.85936 45       1400     0.18     0                        
S-SM-35-33390    PG009            33390            49.19243 45       2200     0.18     0                        
S-SM-44-33390    PG009            33390            11.0349  45       550      0.18     0                        
S-SM-33-33389    PG009            33389            16.36533 45       1400     0.18     0                        
S-SM-32-33402    PG009            33402            36.98828 45       2000     0.18     0                        
S-SM-36-B85-1-3340 PG009            B85-1-3340       27.11175 45       1400     0.18     0                        
S-SM-42-B85-4-35631 PG009            B85-4-35631      22.35734 45       1100     0.18     0                        
S-SM-42A-B85-1-3340 PG009            B85-1-3340       26.90447 45       1250     0.18     0                        
S-SM-42B-33389   PG009            33389            30.11369 45       1250     0.18     0                        
S-NWI-SM-43-3562 PG009            3562             25.69566 45       1150     0.18     0                        
S-SM-58-33352    PG009            33352            17.90093 45       1100     0.18     0                        
S-CU-72-36560    PG009            36560            43.89942 30       1700     0.15     0                        
S-CU-80-36552    PG009            36552            30.43554 30       1500     0.15     0                        
S-CU-73-36553    PG009            36553            34.63692 30       1500     0.15     0                        
S-CU-84-36553    PG009            36553            20.58526 30       1300     0.15     0                        
S-CU-85-36554    PG009            36554            18.14    30       1200     0.15     0                        
S-CU-76-36555    PG009            36555            39.82633 30       1800     0.15     0                        
S-CU-86-36555    PG009            36555            26.22681 30       1300     0.15     0                        
S-CU-77-36556    PG009            36556            24.36979 30       1300     0.15     0                        
S-CU-78-36557    PG009            36557            38.12315 30       1700     0.15     0                        
S-SxM-82-350062  PG009            350062           26.97728 52       1400     0.2      0                        
S-SxM-81-350061  PG009            350061           35.41826 52       2450     0.2      0                        
S-MC-98-39301    PG009            39301            32.19036 52       1800     0.2      0                        
S-SxM-109-350062 PG009            350062           29.51624 52       1500     0.2      0                        
S-SxM-108-350061 PG009            350061           21.03351 52       1400     0.2      0                        
S-SxM-106-35005  PG009            35005            16.05096 52       1400     0.2      0                        
S-SxM-105-35004  PG009            35004            26.26001 52       1500     0.2      0                        
S-SxM-83-35403   PG009            35403            29.52153 52       1900     0.2      0                        
S-SxM-99-35402   PG009            35402            47.31347 52       2100     0.2      0                        
S-SxM-100-35004  PG009            35004            36.02946 52       1400     0.2      0                        
S-SxM-101-350008 PG009            350008           44.10385 52       1900     0.2      0                        
S-SxM-102-350006 PG009            350006           49.5494  52       1800     0.2      0                        
S-SxM-103-35001  PG009            35001            33.61423 52       1600     0.2      0                        
S-SxM-103A-35003 PG009            35003            21.61436 52       1400     0.2      0                        
S-SxM-68-35000   PG009            35000            18.61118 52       1100     0.2      0                        
S-SxM-68A-35020  PG009            35020            35.1191  52       1400     0.2      0                        
S-SxM-95-35001   PG009            35001            17.92622 52       700      0.2      0                        
S-SxM-104-35003  PG009            35003            19.03456 52       1050     0.2      0                        
S-SxM-94-35019   PG009            35019            36.42758 52       1400     0.2      0                        
S-SxM-66-350003  PG009            350003           39.75128 52       1400     0.2      0                        
S-SxM-66A-350005 PG009            350005           24.38312 52       2100     0.2      0                        
S-SxM-66B-350005 PG009            350005           34.21149 52       1200     0.2      0                        
S-SxM-67-350002  PG009            350002           27.55363 52       1400     0.2      0                        
S-SxM-46-350004  PG009            350004           36.25469 52       1200     0.2      0                        
S-SxM-47A-350001 PG009            350001           30.76652 52       1550     0.2      0                        
S-NWI-SxM-47-B80-3-3560 PG009            B80-3-3560       33.38917 52       1300     0.2      0                        
S-NWI-SM-63-3561 PG009            3561             11.59239 52       700      0.2      0                        
S-NWI-SxM-64-B80-3-3560 PG009            B80-3-3560       15.48484 52       1200     0.2      0                        
S-SxM-65A-350001 PG009            350001           16.40391 52       1500     0.2      0                        
S-SxM-65B-35049  PG009            35049            14.83847 52       1250     0.2      0                        
S-SxM-65-B80-1-34999 PG009            B80-1-34999      23.00085 52       800      0.2      0                        
S-SxM-93-35049   PG009            35049            23.9697  52       1400     0.2      0                        
S-SxM-93A-35001  PG009            35000            15.02559 52       1300     0.2      0                        
S-SxM-92-3940    PG009            3940             30.61986 52       1400     0.2      0                        
S-PU-143-351465  PG009            351465           41.83352 30       1350     0.15     0                        
S-PU-133-351464  PG009            351464           19.10945 30       1000     0.15     0                        
S-PU-144-351464  PG009            351464           37.06807 30       1600     0.15     0                        
S-PU-135-351463  PG009            351463           26.92986 30       1400     0.15     0                        
S-PU-136-3514633 PG009            3514633          13.11548 30       1200     0.15     0                        
S-PU-145-3514633 PG009            3514633          39.48937 30       1800     0.15     0                        
S-PU-137-3514632 PG009            3514632          19.99528 30       1400     0.15     0                        
S-PU-138-3514631 PG009            3514631          20.22877 30       1400     0.15     0                        
S-PU-149-3514631 PG009            3514631          38.80046 30       1600     0.15     0                        
S-PU-139-3514631 PG009            3514631          19.85094 30       1100     0.15     0                        
S-PU-140-351462  PG009            351462           32.8916  30       1300     0.15     0                        
S-PU-151-351462  PG009            351462           39.30154 30       1800     0.15     0                        
S-PU-141-351460  PG009            351460           19.43772 30       1100     0.15     0                        
S-PU-153-35146   PG009            35146            11.549   30       1300     0.15     0                        
S-PU-153A-351460 PG009            351460           30.76273 30       1550     0.15     0                        
S-PU-142-35141   PG009            35141            43.82375 30       1500     0.15     0                        
S-PU-114-33601   PG009            33601            33.34449 30       1400     0.15     0                        
S-PU-115-33602   PG009            33602            39.3076  30       1400     0.15     0                        
S-NWI-PU-155-B77-2-35149 PG009            B77-2-35149      25.62718 30       1200     0.15     0                        
S-NWI-PU-155A-B77-2-35149 PG009            B77-2-35149      9.52881  30       1000     0.15     0                        
S-NWI-PU-156-35148 PG009            35148            31.62482 30       1300     0.15     0                        
S-GDR-96-39528   PG009            39528            24.0749  40       1400     0.15     0                        
S-GDR-104A-39527 PG009            39527            15.37318 40       1400     0.15     0                        
S-GDR-132-39527  PG009            39527            19.14452 40       900      0.15     0                        
S-GDR-107B-39525 PG009            39525            11.69721 40       800      0.15     0                        
S-GDR-131-39525  PG009            39525            14.94126 40       800      0.15     0                        
S-GDR-107-39524  PG009            39524            11.69386 40       1200     0.15     0                        
S-GDR-129-39524  PG009            39524            4.21801  40       500      0.15     0                        
S-GDR-110-395241 PG009            395241           57.64373 40       1500     0.15     0                        
S-GDR-128-395241 PG009            395241           34.32229 40       1400     0.15     0                        
S-GDR-116-395231 PG009            395231           50.67336 40       2000     0.15     0                        
S-GDR-117-39522  PG009            39522            26.31794 40       1300     0.15     0                        
S-GDR-118-39520  PG009            39520            45.82592 40       1900     0.15     0                        
S-GDR-121-39520  PG009            39520            25.91982 40       600      0.15     0                        
S-GDR-125-39522  PG009            39522            33.16434 40       1600     0.15     0                        
S-GDR-126-39520  PG009            395231           28.46151 40       1700     0.15     0                        
S-SF-GDR-119-3762 PG009            3762             15.48887 40       800      0.15     0                        
S-SF-GDR-120-37611 PG009            37611            34.86481 40       1450     0.15     0                        
S-NWI-FE-154-3535 PG009            3535             20.1751  18       1200     0.03     0                        
S-FE-154A-39161  PG009            39161            20.41773 18       1250     0.03     0                        
S-FE-165-39161   PG009            39161            21.54025 18       1300     0.03     0                        
S-NWI-FE-166-35137 PG009            35137            19.19375 18       1400     0.03     0                        
S-NWI-FE-166A-3535 PG009            3535             15.20757 18       1200     0.03     0                        
S-FE-122-39102   PG009            39102            49.41295 18       1700     0.03     0                        
S-FE-127-39121   PG009            39121            40.00796 18       1400     0.03     0                        
S-FE-146-39131   PG009            39131            42.70663 18       1400     0.03     0                        
S-FE-146A-39131  PG009            39131            34.9281  18       1000     0.03     0                        
S-FE-147-39151   PG009            39151            36.26014 18       1300     0.03     0                        
S-FE-147A-39151  PG009            39151            27.89208 18       900      0.03     0                        
S-FE-148-39165   PG009            39165            39.70708 18       1300     0.03     0                        
S-FE-150-39163   PG009            39163            39.74704 18       1500     0.03     0                        
S-FE-152-39162   PG009            39162            40.38669 18       1300     0.03     0                        
S-NWI-FE-156A-35137 PG009            35137            18.16482 18       1450     0.03     0                        
S-FE-157-39101   PG009            39101            28.14344 18       1400     0.03     0                        
S-FE-161-39101   PG009            39101            34.56604 18       2500     0.03     0                        
S-FE-162-39165   PG009            39165            13.52495 18       600      0.03     0                        
S-FE-163-39164   PG009            39164            46.06244 18       1500     0.03     0                        
S-FE-164-39162   PG009            39162            44.24365 18       1400     0.03     0                        
S-NWI-LY-168-B72-2-35126 PG009            B72-2-35126      26.012   18       900      0.03     0                        
S-NWI-LY-169-35127 PG009            35127            14.94846 18       900      0.03     0                        
S-LY-167-3961    PG009            3961             37.14323 18       1400     0.03     0                        
S-LY-175-3961    PG009            3961             32.65767 18       1300     0.03     0                        
S-LY-170-39611   PG009            39611            37.3023  18       1400     0.03     0                        
S-LY-176-39611   PG009            39611            10.3968  18       800      0.03     0                        
S-LY-178-39611   PG009            39611            19.25101 18       1200     0.03     0                        
S-LY-171-39612   PG009            39612            25.81711 18       1400     0.03     0                        
S-LY-172-39613   PG009            39613            36.40843 18       1600     0.03     0                        
S-LY-179-39612   PG009            39612            18.41634 18       1200     0.03     0                        
S-LY-180-39613   PG009            39613            16.63505 18       1200     0.03     0                        
S-LY-160A-39615  PG009            39615            51.98371 18       2000     0.03     0                        
S-LY-172A-39614  PG009            39614            44.54908 18       1800     0.03     0                        
S-LY-185-39614   PG009            39614            34.49361 18       1600     0.03     0                        
S-LY-186-39615   PG009            39615            12.14382 18       1400     0.03     0                        
S-LY-160-3959    PG009            3959             44.4156  18       1500     0.03     0                        
S-LY-205-3960    PG009            3960             19.70591 18       1600     0.03     0                        
S-LY-206-3959    PG009            3959             13.14654 18       1400     0.03     0                        
S-LY-124-39571   PG009            39571            21.80615 18       800      0.03     0                        
S-LY-124A-3954   PG009            3954             26.67597 18       900      0.03     0                        
S-LY-159-39574   PG009            39574            24.70905 18       1600     0.03     0                        
S-LY-209-3958    PG009            3958             20.3217  18       1300     0.03     0                        
S-LY-211-39574   PG009            39574            19.98084 18       1500     0.03     0                        
S-LY-213-39571   PG009            39571            26.53492 18       1100     0.03     0                        
S-LY-215-3954    PG009            3954             39.9678  18       1500     0.03     0                        
S-NWI-LY-173-35212 PG009            35212            14.56715 30       600      0.15     0                        
S-NWI-LY-174-B72-3-35214 PG009            B72-3-35214      20.01057 30       1100     0.15     0                        
S-NWI-LY-174A-35211 PG009            35211            32.07394 30       1500     0.15     0                        
S-NWI-LA-177-35116 PG009            35116            27.22863 20       1600     0.05     0                        
S-NWI-LA-177A-3515 PG009            3515             18.44194 20       1400     0.05     0                        
S-NWI-LA-181-3974 PG009            3974             26.00898 20       1500     0.05     0                        
S-NWI-LA-188-B67-1-3506 PG009            B67-1-3506       17.44462 20       900      0.05     0                        
S-NWI-LA-188A-3505 PG009            3505             22.8     20       1000     0.05     0                        
S-NWI-LA-189-SCP1 PG009            SCP1             58.64444 20       2000     0.05     0                        
S-NWI-LA-190-3501 PG009            3501             40.24422 20       1450     0.05     0                        
S-NWI-LA-191-3500 PG009            3500             18.13136 20       1300     0.05     0                        
S-NWI-LA-192-SCP2 PG009            SCP2             60.20545 20       2000     0.05     0                        
S-NWI-LA-193-3488 PG009            3488             27.07088 20       1400     0.05     0                        
S-NWI-LA-194-3488 PG009            3488             26.27613 20       1200     0.05     0                        
S-NWI-LA-194A-3488 PG009            3488             12.49964 20       1800     0.05     0                        
S-NWI-LA-218-3487 PG009            3487             20.84451 20       1100     0.05     0                        
S-NWI-LA-219-3486 PG009            3486             28.72369 20       1400     0.05     0                        
S-NWI-LA-220-3487 PG009            3487             21.95002 20       2200     0.05     0                        
S-SC-182-3972    PG009            3972             39.58458 30       1500     0.1      0                        
S-SC-183-39701   PG009            39701            49.21084 30       1300     0.1      0                        
S-SC-184-3970    PG009            3970             34.1626  30       1500     0.1      0                        
S-SC-187-39681   PG009            39681            19.89457 30       1400     0.1      0                        
S-SC-195-39681   PG009            39681            53.32852 30       2000     0.1      0                        
S-SC-197-39664   PG009            39664            25.7077  30       1500     0.1      0                        
S-SC-198-39663   PG009            39663            12.94391 30       1500     0.1      0                        
S-SC-200-39666   PG009            39666            24.65624 30       1500     0.1      0                        
S-SC-202-39661   PG009            39661            25.63215 30       750      0.1      0                        
S-SC-204-3966    PG009            3966             40.06889 30       1400     0.1      0                        
S-SC-207-39684   PG009            39684            17.31791 30       1200     0.1      0                        
S-SC-208-39664   PG009            39664            26.12664 30       1500     0.1      0                        
S-SC-210-39663   PG009            39663            39.27822 30       1550     0.1      0                        
S-SC-212-39666   PG009            39666            38.95123 30       1500     0.1      0                        
S-SC-214-39661   PG009            39661            51.47895 30       1700     0.1      0                        
S-SC-216-3966    PG009            3966             37.36643 30       1400     0.1      0                        
S-GLD-196-38967  PG009            38967            24.63559 45       1000     0.18     0                        
S-GLD-199-38965  PG009            38965            38.29099 45       1100     0.18     0                        
S-GLD-201-38965  PG009            38965            40.33378 45       1200     0.18     0                        
S-GLD-203-38963  PG009            38963            15.07257 45       800      0.18     0                        
S-GLD-217-38963  PG009            38963            75.23982 45       2000     0.18     0                        
S-PL-221-38851   PG009            38851            28.50635 20       1400     0.1      0                        
S-PL-222-38852   PG009            38852            31.45791 20       1200     0.1      0                        
S-PL-223-38853   PG009            38853            31.03801 20       2000     0.1      0                        
S-PL-224-38855   PG009            38855            40.11554 20       2100     0.1      0                        
S-PL-225-38856   PG009            38856            37.71635 20       2100     0.1      0                        
S-PL-226-34721   PG009            34721            13.5203  20       800      0.1      0                        
S-PL-227-38852   PG009            38852            13.39572 20       700      0.1      0                        
S-PL-228-38852   PG009            38852            34.51645 20       1800     0.1      0                        
S-PL-229-38853   PG009            38853            13.90394 20       1600     0.1      0                        
S-PL-230-38855   PG009            38855            18.43655 20       1000     0.1      0                        
S-PL-231-38856   PG009            38856            18.51495 20       1000     0.1      0                        
S-PL-232-38841   PG009            38841            38.60952 20       1300     0.1      0                        
S-PL-240-3884    PG009            3884             16.168   20       1100     0.1      0                        
S-PL-245-3882    PG009            3882             37.55829 20       1200     0.1      0                        
S-PL-246-38841   PG009            38841            39.41013 20       1400     0.1      0                        
S-PL-247-38841   PG009            38841            38.20263 20       2100     0.1      0                        
S-PL-248-3884    PG009            3884             40.44085 20       2100     0.1      0                        
S-PL-249-3883    PG009            3883             39.80606 20       2100     0.1      0                        
S-PL-250-3882    PG009            3882             21.06486 20       1200     0.1      0                        
S-PL-251-3740    PG009            3740             18.30757 20       1300     0.1      0                        
S-NMI-WC-233-3472 PG009            3472             27.959   18       1400     0.04     0                        
S-WC-234-38605   PG009            38605            29.08101 18       1000     0.04     0                        
S-WC-235-38604   PG009            38604            33.52761 18       1300     0.04     0                        
S-W--236-38603   PG009            38603            21.28127 18       1200     0.04     0                        
S-WC-237-38602   PG009            38602            33.77235 18       1400     0.04     0                        
S-WC-238-38601   PG009            38601            19.2266  18       1300     0.04     0                        
S-WC-239-3860    PG009            3860             26.03491 18       1450     0.04     0                        