[TITLE]
;;Project Title/Notes

[OPTIONS]
;;Option             Value
FLOW_UNITS           LPS
INFILTRATION         HORTON
FLOW_ROUTING         DYNWAVE
LINK_OFFSETS         DEPTH
MIN_SLOPE            0
ALLOW_PONDING        NO
SKIP_STEADY_STATE    NO

START_DATE           01/01/2002
START_TIME           00:00:00
REPORT_START_DATE    01/01/2002
REPORT_START_TIME    00:00:00
END_DATE             01/01/2002
END_TIME             01:00:00
SWEEP_START          01/01
SWEEP_END            12/31
DRY_DAYS             5.000000
REPORT_STEP          00:05:00
WET_STEP             00:05:00
DRY_STEP             01:00:00
ROUTING_STEP         0:00:05 

INERTIAL_DAMPING     NONE
NORMAL_FLOW_LIMITED  BOTH
FORCE_MAIN_EQUATION  H-W
VARIABLE_STEP        0.75
LENGTHENING_STEP     10
MIN_SURFAREA         0
MAX_TRIALS           0
HEAD_TOLERANCE       0
SYS_FLOW_TOL         5
LAT_FLOW_TOL         5
MINIMUM_STEP         0.5
THREADS              1

[EVAPORATION]
;;Data Source    Parameters
;;-------------- ----------------
CONSTANT         0.0
DRY_ONLY         NO

[RAINGAGES]
;;Name           Format    Interval SCF      Source    
;;-------------- --------- ------ ------ ----------
IWAKUNI          VOLUME    0.166667 1.000000 TIMESERIES SMALLSTORM      

[SUBCATCHMENTS]
;;Name           Rain Gage        Outlet           Area     %Imperv  Width    %Slope   CurbLen  SnowPack        
;;-------------- ---------------- ---------------- -------- -------- -------- -------- -------- ----------------
; 200832
CPOND            IWAKUNI          IWK-100          4.292101 100.000000 207.173869 0.015251 0.000000                 
FIELD_4          IWAKUNI          IWK-985          1.768288 0.000000 132.976994 0.124215 0.000000                 
FIELD_5          IWAKUNI          CATCH_BASIN_485  5.325816 4.808995 236.566927 1.182306 0.000000                 
; New Subcatchment
FLOODWALL        IWAKUNI          CATCH_BASIN_4290 6.688496 26.059853 258.621273 2.124908 0.000000                 
GOLF_COURSE_AREA IWAKUNI          MANHOLE_450      22.637206 7.099070 479.900574 0.224426 0.000000                 
; 200832
NORTH_PONDA      IWAKUNI          IWK-146          22.065700 100.000000 469.741423 1.395809 0.000000                 
; 200832
NORTH_PONDB      IWAKUNI          NORTH_POND_B     2.526435 100.000000 158.947628 0.534276 0.000000                 
; New Subcatchment
SOUTH_PONDA      IWAKUNI          IWK-533          28.826042 100.000000 536.898890 0.433718 0.000000                 
; 200832
SOUTH_PONDB      IWAKUNI          IWK-199          16.549140 100.000000 406.806338 0.784909 0.000000                 
; New Subcatchment
SUB-1            IWAKUNI          IWK-1186         3.653501 0.150535 191.141340 2.196546 0.000000                 
; New Subcatchment
SUB-10           IWAKUNI          MANHOLE_167      6.692227 29.003168 258.693383 0.286670 0.000000                 
; New Subcatchment
SUB-100          IWAKUNI          IWK-1382         0.585212 12.417901 76.499160 0.204982 0.000000                 
; New Subcatchment
SUB-101          IWAKUNI          IWK-430          5.126458 0.000000 226.416837 3.097573 0.000000                 
; New Subcatchment
SUB-102          IWAKUNI          IWK-717          0.468170 47.663703 68.422929 0.051823 0.000000                 
; New Subcatchment
SUB-103          IWAKUNI          IWK-1402         0.374536 0.000000 61.199328 0.054011 0.000000                 
; New Subcatchment
SUB-104          IWAKUNI          IWK-9001         0.280902 31.600057 53.000173 0.226442 0.000000                 
; New Subcatchment
SUB-105          IWAKUNI          IWK-9001         0.187268 26.695235 43.274460 0.329757 0.000000                 
; New Subcatchment
SUB-106          IWAKUNI          CATCH_BASIN_865  4.096413 98.154712 202.395962 0.076806 0.000000                 
; New Subcatchment
SUB-108          IWAKUNI          MANHOLE_924      3.493871 33.715786 186.918990 1.212641 0.000000                 
; New Subcatchment
SUB-109          IWAKUNI          IWK-189          4.166710 55.466521 204.125219 0.402148 0.000000                 
; New Subcatchment
SUB-11           IWAKUNI          IWK-907          1.560386 0.000000 124.915426 2.531616 0.000000                 
; New Subcatchment
SUB-110          IWAKUNI          CATCH_BASIN_535  0.678846 100.000000 82.392117 0.104621 0.000000                 
; New Subcatchment
SUB-111          IWAKUNI          MANHOLE_290      1.849270 71.115669 135.960778 0.111757 0.000000                 
; New Subcatchment
SUB-112          IWAKUNI          IWK-312          1.498143 6.121968 122.398656 0.378385 0.000000                 
; New Subcatchment
SUB-113          IWAKUNI          CATCH_BASIN_2270 3.136737 25.953866 177.108360 0.153547 0.000000                 
; New Subcatchment
SUB-114          IWAKUNI          IWK-1287         3.979443 2.727706 199.485403 0.885484 0.000000                 
; New Subcatchment
SUB-115          IWAKUNI          CULVERT_STORAGE_15 0.163859 7.017793 40.479551 0.543506 0.000000                 
; New Subcatchment
SUB-116          IWAKUNI          IWK-215          3.534681 46.693038 188.059064 0.126224 0.000000                 
; New Subcatchment
SUB-117          IWAKUNI          MANHOLE_200      3.008168 40.439271 173.440711 0.297830 0.000000                 
; New Subcatchment
SUB-119          IWAKUNI          MANHOLE_1925     1.240650 13.301020 111.384458 0.130093 0.000000                 
; New Subcatchment
SUB-12           IWAKUNI          IWK-907          2.857709 62.023507 169.047593 0.298312 0.000000                 
; New Subcatchment
SUB-120          IWAKUNI          CATCH_BASIN_7691 0.046817 100.000000 21.637230 0.801142 0.000000                 
; New Subcatchment
SUB-121          IWAKUNI          CATCH_BASIN_1205 1.521552 70.826902 123.351189 0.113884 0.000000                 
; New Subcatchment
SUB-122          IWAKUNI          MANHOLE_809      1.498143 67.379335 15.299832 0.055875 0.000000                 
; New Subcatchment
SUB-123          IWAKUNI          IWK-972          2.294032 42.753201 151.460609 0.135057 0.000000                 
; New Subcatchment
SUB-124          IWAKUNI          IWK-1321         3.698541 31.588590 192.926174 0.078274 0.000000                 
; New Subcatchment
SUB-125          IWAKUNI          CATCH_BASIN_7691 2.948698 48.345657 171.717729 1.132411 0.000000                 
; New Subcatchment
SUB-128          IWAKUNI          CULVERT_STORAGE_15 2.738793 10.702316 165.492986 1.196342 0.000000                 
; New Subcatchment
SUB-129          IWAKUNI          CULVERT_STORAGE_8 3.534681 38.278557 188.007483 0.291304 0.000000                 
; New Subcatchment
SUB-13           IWAKUNI          IWK-200          2.231889 54.502664 149.395080 0.555820 0.000000                 
; New Subcatchment
SUB-130          IWAKUNI          CATCH_BASIN_8326 3.206963 9.081708 179.079942 0.098981 0.000000                 
; New Subcatchment
SUB-131          IWAKUNI          MANHOLE_927      1.803917 34.150610 134.309980 0.212215 0.000000                 
; New Subcatchment
SUB-133          IWAKUNI          CATCH_BASIN_40   1.544960 51.841638 124.296423 0.198725 0.000000                 
; New Subcatchment
SUB-135          IWAKUNI          CATCH_BASIN_69   6.119061 76.094377 247.367358 0.016930 0.000000                 
; New Subcatchment
SUB-136          IWAKUNI          IWK-4041         3.230371 75.983043 179.732330 0.231784 0.000000                 
; New Subcatchment
SUB-137          IWAKUNI          IWK-887          4.424204 64.521318 210.337915 0.045918 0.000000                 
; New Subcatchment
SUB-138          IWAKUNI          MANHOLE_810      7.092771 53.121842 266.322572 0.169512 0.000000                 
; New Subcatchment
SUB-139          IWAKUNI          CATCH_BASIN_7688 1.835790 76.709686 135.491336 0.996294 0.000000                 
; New Subcatchment
SUB-14           IWAKUNI          IWK-825          4.096485 21.211185 202.397753 1.371661 0.000000                 
; New Subcatchment
SUB-140          IWAKUNI          IWK-657          0.959748 46.982282 97.966725 0.121435 0.000000                 
; New Subcatchment
SUB-142          IWAKUNI          IWK-257          1.896087 60.463002 137.698488 0.273286 0.000000                 
; New Subcatchment
SUB-144          IWAKUNI          IWK-216          2.106764 55.432612 145.146951 0.135367 0.000000                 
; New Subcatchment
SUB-145          IWAKUNI          CATCH_BASIN_7689 0.046817 99.998780 21.637230 0.397654 0.000000                 
; New Subcatchment
SUB-146          IWAKUNI          IWK-2788         1.638594 48.953003 128.007578 0.336323 0.000000                 
; New Subcatchment
SUB-148          IWAKUNI          IWK-496          0.514987 36.363644 71.762573 0.122761 0.000000                 
; New Subcatchment
SUB-149          IWAKUNI          IWK-978          2.059947 38.497229 143.525146 0.095450 0.000000                 
; New Subcatchment
SUB-15           IWAKUNI          IWK-1322         0.163859 64.958441 40.479551 0.084995 0.000000                 
; New Subcatchment
SUB-150          IWAKUNI          IWK-224          1.896087 53.596235 137.698488 0.291475 0.000000                 
; New Subcatchment
SUB-151          IWAKUNI          MANHOLE_776      3.534681 41.594699 188.007483 0.149650 0.000000                 
; New Subcatchment
SUB-152          IWAKUNI          CATCH_BASIN_8016 1.989721 33.449644 141.057481 0.489513 0.000000                 
; New Subcatchment
SUB-153          IWAKUNI          MANHOLE_442      6.677503 38.700586 258.408645 0.797107 0.000000                 
; New Subcatchment
SUB-154          IWAKUNI          IWK-536          1.825862 46.609640 135.124458 0.075718 0.000000                 
; New Subcatchment
SUB-155          IWAKUNI          MANHOLE_811      2.176919 65.146305 147.543875 0.197956 0.000000                 
; New Subcatchment
SUB-156          IWAKUNI          IWK-982          3.698541 45.626908 192.315906 0.457060 0.000000                 
; New Subcatchment
SUB-157          IWAKUNI          MANHOLE_144      2.653427 35.932207 162.893437 0.379377 0.000000                 
; New Subcatchment
SUB-158          IWAKUNI          MANHOLE_811      0.023408 77.788840 15.299832 0.122855 0.000000                 
; New Subcatchment
SUB-160          IWAKUNI          MANHOLE_2241     3.019695 52.507108 173.772687 0.197053 0.000000                 
; New Subcatchment
SUB-161          IWAKUNI          CATCH_BASIN_10881 9.199535 34.093610 303.307352 0.447411 0.000000                 
; New Subcatchment
SUB-162          IWAKUNI          IWK-9015         2.234588 43.287049 149.485378 0.200287 0.000000                 
; New Subcatchment
SUB-163          IWAKUNI          MANHOLE_807      2.106764 43.356987 145.146951 0.092778 0.000000                 
; New Subcatchment
SUB-164          IWAKUNI          MANHOLE_275      4.611472 24.647129 214.743375 0.385142 0.000000                 
; New Subcatchment
SUB-168          IWAKUNI          IWK-541          3.675132 37.857723 191.706345 0.249993 0.000000                 
; New Subcatchment
SUB-169          IWAKUNI          IWK-1169         0.140451 0.000000 37.476782 0.062073 0.000000                 
; New Subcatchment
SUB-171          IWAKUNI          CATCH_BASIN_4683 0.567651 57.797924 75.342607 0.251400 0.000000                 
; New Subcatchment
SUB-172          IWAKUNI          IWK-1141         0.260266 41.695822 51.016300 0.265193 0.000000                 
; New Subcatchment
SUB-174          IWAKUNI          IWK-1315         1.309875 14.657807 114.449757 0.076945 0.000000                 
; New Subcatchment
SUB-175          IWAKUNI          MANHOLE_271      2.738793 40.374534 166.207701 0.425113 0.000000                 
; New Subcatchment
SUB-176          IWAKUNI          CATCH_BASIN_7689 1.863492 29.365544 136.509770 1.504168 0.000000                 
; New Subcatchment
SUB-178          IWAKUNI          CATCH_BASIN_5253 0.280902 78.414548 53.000173 0.259155 0.000000                 
; New Subcatchment
SUB-179          IWAKUNI          IWK-1314         1.568369 47.860519 125.234522 0.307614 0.000000                 
; New Subcatchment
SUB-180          IWAKUNI          MANHOLE_1921     2.223806 77.783953 149.124316 0.384138 0.000000                 
; New Subcatchment
SUB-181          IWAKUNI          MANHOLE_1922     2.668567 46.644308 163.357504 0.226355 0.000000                 
; New Subcatchment
SUB-183          IWAKUNI          CATCH_BASIN_3327 0.701914 39.447007 83.780315 0.588323 0.000000                 
; New Subcatchment
SUB-184          IWAKUNI          IWK-977          3.838992 43.939217 195.933450 0.515739 0.000000                 
; New Subcatchment
SUB-185          IWAKUNI          MANHOLE_153      1.700511 54.565268 130.403640 0.261013 0.000000                 
; New Subcatchment
SUB-186          IWAKUNI          IWK-205          6.437334 42.046263 253.719010 0.425390 0.000000                 
; New Subcatchment
SUB-187          IWAKUNI          MANHOLE_105      1.525125 26.773217 123.495959 0.424855 0.000000                 
; New Subcatchment
SUB-188          IWAKUNI          IWK-834          1.719657 43.672606 131.135696 0.168511 0.000000                 
; New Subcatchment
SUB-189          IWAKUNI          CATCH_BASIN_4232 1.591777 46.348895 126.165647 0.183424 0.000000                 
; New Subcatchment
SUB-190          IWAKUNI          IWK-205          2.036538 21.135025 142.707333 1.337514 0.000000                 
; New Subcatchment
SUB-191          IWAKUNI          CATCH_BASIN_441  6.133023 50.307336 247.649416 0.119908 0.000000                 
; New Subcatchment
SUB-192          IWAKUNI          IWK-152          2.130172 25.734768 145.951095 0.166756 0.000000                 
; New Subcatchment
SUB-194          IWAKUNI          IWK-185          0.163859 11.359140 40.479551 1.193393 0.000000                 
; New Subcatchment
SUB-195          IWAKUNI          IWK-8            0.702445 42.535073 83.811993 0.077203 0.000000                 
; New Subcatchment
SUB-197          IWAKUNI          IWK-977          2.387666 47.630696 154.520729 0.600486 0.000000                 
; New Subcatchment
SUB-198          IWAKUNI          IWK-152          3.183554 88.801255 178.425169 0.210830 0.000000                 
; New Subcatchment
SUB-199          IWAKUNI          MANHOLE_114      1.825862 47.180896 135.124458 0.164221 0.000000                 
; New Subcatchment
SUB-2            IWAKUNI          IWK-1185         4.571251 5.748285 213.804829 2.053666 0.000000                 
; New Subcatchment
SUB-200          IWAKUNI          IWK-175          2.013130 40.024189 141.884805 0.695031 0.000000                 
; New Subcatchment
SUB-202          IWAKUNI          IWK-1439         2.668567 36.854569 163.357504 0.407440 0.000000                 
; New Subcatchment
SUB-205          IWAKUNI          IWK-1357         1.474404 96.444561 121.425035 0.602181 0.000000                 
; New Subcatchment
SUB-206          IWAKUNI          IWK-223          0.280902 47.638430 53.000173 0.704117 0.000000                 
; New Subcatchment
SUB-207          IWAKUNI          MANHOLE_901      1.872679 48.800919 136.845858 0.095515 0.000000                 
; New Subcatchment
SUB-208          IWAKUNI          CATCH_BASIN_305  0.632029 16.799314 79.500259 0.187259 0.000000                 
; New Subcatchment
SUB-209          IWAKUNI          IWK-152          0.983156 68.441186 99.154244 0.230650 0.000000                 
; New Subcatchment
SUB-21           IWAKUNI          IWK-212          0.943220 0.000000 97.119523 2.538201 0.000000                 
; New Subcatchment
SUB-211          IWAKUNI          IWK-1357         3.160146 48.125164 177.767984 0.222490 0.000000                 
; New Subcatchment
SUB-213          IWAKUNI          IWK-401          2.387666 30.980617 154.520729 0.183580 0.000000                 
; New Subcatchment
SUB-214          IWAKUNI          IWK-185          0.444761 31.333861 66.690422 1.056207 0.000000                 
; New Subcatchment
SUB-217          IWAKUNI          IWK-90           8.821595 37.922350 297.079547 1.094576 0.000000                 
; New Subcatchment
SUB-218          IWAKUNI          CULVERT_STORAGE_21 4.073077 29.123682 201.818645 0.318133 0.000000                 
; New Subcatchment
SUB-219          IWAKUNI          IWK-3216         4.598392 56.210854 214.438623 0.188854 0.000000                 
; New Subcatchment
SUB-22           IWAKUNI          MANHOLE_877      2.013130 37.144391 141.884805 0.285353 0.000000                 
; New Subcatchment
SUB-220          IWAKUNI          IWK-4042         3.745358 72.060168 193.529268 0.189970 0.000000                 
; New Subcatchment
SUB-221          IWAKUNI          IWK-152          0.959748 28.825385 97.966725 0.231977 0.000000                 
; New Subcatchment
SUB-222          IWAKUNI          IWK-9008         0.584343 32.261577 76.442360 0.330821 0.000000                 
; New Subcatchment
SUB-223          IWAKUNI          IWK-9007         1.310875 42.501271 114.493459 0.009969 0.000000                 
; New Subcatchment
SUB-224          IWAKUNI          IWK-4042         1.919496 69.995733 138.545871 0.289487 0.000000                 
; New Subcatchment
SUB-225          IWAKUNI          IWK-176          1.989721 35.508253 141.057481 0.514414 0.000000                 
; New Subcatchment
SUB-226          IWAKUNI          CULVERT_STORAGE_18 0.514987 23.127439 71.762573 0.306109 0.000000                 
; New Subcatchment
SUB-228          IWAKUNI          IWK-150          0.608621 38.693789 78.014142 0.420994 0.000000                 
; New Subcatchment
SUB-229          IWAKUNI          IWK-69           1.427918 57.123491 119.495508 0.422219 0.000000                 
; New Subcatchment
SUB-23           IWAKUNI          IWK-200          1.498143 30.852063 122.398656 0.606460 0.000000                 
; New Subcatchment
SUB-230          IWAKUNI          IWK-69           1.708819 66.743255 130.721822 0.279255 0.000000                 
; New Subcatchment
SUB-231          IWAKUNI          IWK-9006         1.287467 34.167850 113.466591 0.124789 0.000000                 
; New Subcatchment
SUB-232          IWAKUNI          IWK-86           3.574847 19.829310 189.072657 0.211231 0.000000                 
; New Subcatchment
SUB-233          IWAKUNI          IWK-2            1.451326 2.048284 120.470998 0.975369 0.000000                 
; New Subcatchment
SUB-234          IWAKUNI          IWK-511          4.166710 37.463845 204.125219 0.400176 0.000000                 
; New Subcatchment
SUB-235          IWAKUNI          CATCH_BASIN_941  6.258264 46.104814 250.165224 1.242904 0.000000                 
; New Subcatchment
SUB-236          IWAKUNI          IWK-68           7.888660 49.713098 280.867580 0.672591 0.000000                 
; New Subcatchment
SUB-237          IWAKUNI          IWK-203          1.638594 42.349105 128.007578 0.109382 0.000000                 
; New Subcatchment
SUB-238          IWAKUNI          CATCH_BASIN_7686 4.957414 33.739158 222.652505 1.927613 0.000000                 
; New Subcatchment
SUB-239          IWAKUNI          MANHOLE_50       7.092771 49.006695 266.322572 0.540130 0.000000                 
; New Subcatchment
SUB-240          IWAKUNI          IWK-67           2.130172 18.174111 145.951095 0.613620 0.000000                 
; New Subcatchment
SUB-241          IWAKUNI          MANHOLE_951      3.160146 25.670908 177.767984 0.780235 0.000000                 
; New Subcatchment
SUB-242          IWAKUNI          IWK-180          0.678846 54.816954 82.392117 0.251134 0.000000                 
; New Subcatchment
SUB-243          IWAKUNI          CATCH_BASIN_7681 3.581498 57.978605 189.248470 0.334157 0.000000                 
; New Subcatchment
SUB-245          IWAKUNI          CATCH_BASIN_761  2.598342 10.909071 161.193732 0.232486 0.000000                 
; New Subcatchment
SUB-246          IWAKUNI          IWK-114          0.210676 7.325774 45.899496 0.023215 0.000000                 
; New Subcatchment
SUB-247          IWAKUNI          CULVERT_STORAGE_25 3.926645 49.378157 198.157640 0.610731 0.000000                 
; New Subcatchment
SUB-249          IWAKUNI          CATCH_BASIN_4555 0.934346 57.368495 96.661550 0.121463 0.000000                 
; New Subcatchment
SUB-25           IWAKUNI          CATCH_BASIN_5297 3.165282 20.263091 177.912399 0.191728 0.000000                 
; New Subcatchment
SUB-250          IWAKUNI          MANHOLE_950      3.792175 30.882765 194.735069 0.823712 0.000000                 
; New Subcatchment
SUB-251          IWAKUNI          MANHOLE_161      1.508727 52.574833 122.832063 0.416880 0.000000                 
; New Subcatchment
SUB-252          IWAKUNI          IWK-424          0.023408 49.607343 15.299832 0.489518 0.000000                 
; New Subcatchment
SUB-253          IWAKUNI          IWK-62           0.491578 59.768995 70.112638 0.338856 0.000000                 
; New Subcatchment
SUB-254          IWAKUNI          IWK-676          2.013130 43.137282 141.884805 0.550581 0.000000                 
; New Subcatchment
SUB-255          IWAKUNI          IWK-294          3.581498 54.473257 189.248470 0.237735 0.000000                 
; New Subcatchment
SUB-256          IWAKUNI          MANHOLE_958      1.638594 18.027657 128.007578 0.402881 0.000000                 
; New Subcatchment
SUB-257          IWAKUNI          CATCH_BASIN_914  0.163859 74.455439 40.479551 0.342164 0.000000                 
; New Subcatchment
SUB-258          IWAKUNI          IWK-411          0.023408 96.926712 15.299832 0.261622 0.000000                 
; New Subcatchment
SUB-259          IWAKUNI          IWK-191          3.359703 38.344618 183.294937 0.126903 0.000000                 
; New Subcatchment
SUB-26           IWAKUNI          IWK-1322         1.521552 30.741283 123.351189 0.268838 0.000000                 
; New Subcatchment
SUB-260          IWAKUNI          MANHOLE_564      8.202198 34.102098 286.394802 1.406617 0.000000                 
; New Subcatchment
SUB-261          IWAKUNI          IWK-2182         0.163859 74.073421 40.479551 0.140685 0.000000                 
; New Subcatchment
SUB-262          IWAKUNI          IWK-1349         1.053382 10.399068 102.634393 0.235596 0.000000                 
; New Subcatchment
SUB-263          IWAKUNI          CATCH_BASIN_317  2.762201 51.220299 166.198717 0.018851 0.000000                 
; New Subcatchment
SUB-264          IWAKUNI          CATCH_BASIN_892  3.909217 25.915263 197.717403 0.555617 0.000000                 
; New Subcatchment
SUB-266          IWAKUNI          IWK-1254         4.292325 18.285008 207.179264 0.330948 0.000000                 
; New Subcatchment
SUB-268          IWAKUNI          IWK-62           1.966313 19.224584 140.225277 0.433086 0.000000                 
; New Subcatchment
SUB-27           IWAKUNI          MANHOLE_601      1.124529 44.514533 106.043812 0.354268 0.000000                 
; New Subcatchment
SUB-270          IWAKUNI          CATCH_BASIN_5566 2.574933 67.241928 160.465992 0.056854 0.000000                 
; New Subcatchment
SUB-271          IWAKUNI          CATCH_BASIN_860  4.471021 37.064337 212.008946 0.324474 0.000000                 
; New Subcatchment
SUB-272          IWAKUNI          IWK-295          0.421353 26.862574 64.911690 0.267777 0.000000                 
; New Subcatchment
SUB-273          IWAKUNI          IWK-1453         1.591777 42.188884 126.165647 0.141301 0.000000                 
; New Subcatchment
SUB-274          IWAKUNI          IWK-1269         13.223738 34.534666 363.267432 0.031051 0.000000                 
; New Subcatchment
SUB-275          IWAKUNI          CATCH_BASIN_797  5.758488 28.899787 239.968488 0.266673 0.000000                 
; New Subcatchment
SUB-278          IWAKUNI          MANHOLE_37       15.720522 22.804679 396.491135 0.042271 0.000000                 
; New Subcatchment
SUB-28           IWAKUNI          CATCH_BASIN_682  1.451326 14.285129 120.470998 0.460688 0.000000                 
; New Subcatchment
SUB-281          IWAKUNI          IWK-295          2.855835 50.222268 168.992168 0.213380 0.000000                 
; New Subcatchment
SUB-283          IWAKUNI          IWK-226          5.459831 39.665349 233.662821 0.110314 0.000000                 
; New Subcatchment
SUB-287          IWAKUNI          IWK-184          4.473478 43.699357 211.505983 0.638411 0.000000                 
; New Subcatchment
SUB-288          IWAKUNI          IWK-489          2.563229 52.640557 163.043022 0.411243 0.000000                 
; New Subcatchment
SUB-29           IWAKUNI          IWK-212          0.221883 0.002646 47.104413 2.526408 0.000000                 
; New Subcatchment
SUB-290          IWAKUNI          IWK-182          1.989721 61.227942 141.057481 0.792043 0.000000                 
; New Subcatchment
SUB-291          IWAKUNI          CATCH_BASIN_554  2.083458 25.372248 144.341883 3.346544 0.000000                 
; New Subcatchment
SUB-292          IWAKUNI          CATCH_BASIN_937  2.168186 76.712099 147.247609 0.579251 0.000000                 
; New Subcatchment
SUB-293          IWAKUNI          IWK-70           0.266366 8.732070 51.610618 2.131360 0.000000                 
; New Subcatchment
SUB-294          IWAKUNI          IWK-246          1.142669 33.196812 106.895719 1.312442 0.000000                 
; New Subcatchment
SUB-295          IWAKUNI          CATCH_BASIN_358  1.695956 10.760620 130.228872 0.751818 0.000000                 
; New Subcatchment
SUB-297          IWAKUNI          IWK-230          1.849270 34.509026 135.987881 0.120319 0.000000                 
; New Subcatchment
SUB-298          IWAKUNI          IWK-1183         1.474735 5.246365 121.438652 0.545529 0.000000                 
; New Subcatchment
SUB-299          IWAKUNI          IWK-230          0.304310 0.000000 55.164329 0.037484 0.000000                 
; New Subcatchment
SUB-30           IWAKUNI          CATCH_BASIN_1409 4.738803 36.578229 217.687920 0.526169 0.000000                 
; New Subcatchment
SUB-300          IWAKUNI          IWK-1060         0.661254 41.846359 81.317555 3.130288 0.000000                 
; New Subcatchment
SUB-301          IWAKUNI          IWK-1636         0.163859 0.000000 40.479551 0.189130 0.000000                 
; New Subcatchment
SUB-302          IWAKUNI          IWK-577          3.089920 18.978745 175.781687 2.567515 0.000000                 
; New Subcatchment
SUB-304          IWAKUNI          MANHOLE_407      3.056755 32.883480 174.835779 0.711134 0.000000                 
; New Subcatchment
SUB-305          IWAKUNI          IWK-614          1.756271 30.556917 132.524378 2.802402 0.000000                 
; New Subcatchment
SUB-306          IWAKUNI          IWK-338          0.582083 48.749699 105.427987 3.192564 0.000000                 
; New Subcatchment
SUB-307          IWAKUNI          IWK-1011         1.708763 50.868946 130.719678 0.573835 0.000000                 
; New Subcatchment
SUB-308          IWAKUNI          MANHOLE_426      1.484578 19.100623 121.843266 0.463305 0.000000                 
; New Subcatchment
SUB-31           IWAKUNI          IWK-1196         2.925024 27.141469 171.027027 0.443583 0.000000                 
; New Subcatchment
SUB-310          IWAKUNI          MANHOLE_429      1.849270 17.303456 135.987881 0.904503 0.000000                 
; New Subcatchment
SUB-311          IWAKUNI          CATCH_BASIN_1135 1.846454 36.248820 135.918764 2.057188 0.000000                 
; New Subcatchment
SUB-312          IWAKUNI          IWK-5            1.184007 29.341035 108.733174 2.220989 0.000000                 
; New Subcatchment
SUB-313          IWAKUNI          MANHOLE_421      3.324005 16.663840 182.318540 0.516500 0.000000                 
; New Subcatchment
SUB-314          IWAKUNI          MANHOLE_417      1.680183 69.471882 129.621865 1.164835 0.000000                 
; New Subcatchment
SUB-315          IWAKUNI          IWK-769          2.457891 54.111214 156.776625 0.722524 0.000000                 
; New Subcatchment
SUB-316          IWAKUNI          IWK-1116         3.604907 10.198754 189.865922 1.778721 0.000000                 
; New Subcatchment
SUB-317          IWAKUNI          CATCH_BASIN_1404 1.549470 15.690574 124.477719 0.683556 0.000000                 
; New Subcatchment
SUB-318          IWAKUNI          MANHOLE_409      2.327299 21.852185 152.554883 0.689539 0.000000                 
; New Subcatchment
SUB-319          IWAKUNI          IWK-1093         2.621750 21.709019 161.918202 2.355128 0.000000                 
; New Subcatchment
SUB-32           IWAKUNI          IWK-1311         0.632029 29.364835 79.500259 0.211499 0.000000                 
; New Subcatchment
SUB-320          IWAKUNI          CATCH_BASIN_759  1.319025 31.885080 114.848826 5.529533 0.000000                 
; New Subcatchment
SUB-322          IWAKUNI          CATCH_BASIN_715  2.138903 36.007887 146.249879 3.840064 0.000000                 
; New Subcatchment
SUB-323          IWAKUNI          CATCH_BASIN_499  1.360439 39.978542 116.637876 3.504482 0.000000                 
; New Subcatchment
SUB-324          IWAKUNI          DROP_INLET_455   3.220711 37.973934 179.643440 1.340169 0.000000                 
; New Subcatchment
SUB-325          IWAKUNI          IWK-1015         1.576023 20.046176 125.539744 1.386531 0.000000                 
; New Subcatchment
SUB-326          IWAKUNI          IWK-1308         0.066838 0.000000 25.853019 0.000000 0.000000                 
; New Subcatchment
SUB-327          IWAKUNI          IWK-1111         2.805067 13.237035 167.483338 0.002110 0.000000                 
; New Subcatchment
SUB-328          IWAKUNI          MANHOLE_448      1.864267 1.185034 136.538158 0.181366 0.000000                 
; New Subcatchment