[TITLE]
;;Project Title/Notes

[OPTIONS]
;;Option             Value
FLOW_UNITS           MGD
INFILTRATION         HORTON
FLOW_ROUTING         DYNWAVE
LINK_OFFSETS         DEPTH
MIN_SLOPE            0
ALLOW_PONDING        NO
SKIP_STEADY_STATE    NO

IGNORE_SNOWMELT      YES
IGNORE_GROUNDWATER   YES
IGNORE_QUALITY       YES
START_DATE           04/09/2011
START_TIME           00:00:00
REPORT_START_DATE    04/09/2011
REPORT_START_TIME    00:00:00
END_DATE             04/11/2011
END_TIME             00:00:00
SWEEP_START          01/01
SWEEP_END            12/31
DRY_DAYS             0.000000
REPORT_STEP          00:00:30
WET_STEP             00:05:00
DRY_STEP             01:00:00
ROUTING_STEP         0:00:10 

INERTIAL_DAMPING     NONE
NORMAL_FLOW_LIMITED  BOTH
FORCE_MAIN_EQUATION  H-W
VARIABLE_STEP        0.75
LENGTHENING_STEP     10
MIN_SURFAREA         12.557
MAX_TRIALS           8
HEAD_TOLERANCE       0.000100
SYS_FLOW_TOL         5
LAT_FLOW_TOL         5
MINIMUM_STEP         0
THREADS              1

[EVAPORATION]
;;Data Source    Parameters
;;-------------- ----------------
CONSTANT         0.000000
DRY_ONLY         NO

[RAINGAGES]
;;Name           Format    Interval SCF      Source    
;;-------------- --------- ------ ------ ----------
; dummy to run with subs
DUMMY1           VOLUME    0.083333 1.000000 TIMESERIES DRG1            
; Lincoln Park Community Center
RG1              VOLUME    1.000000 1.000000 TIMESERIES 2YRWSSC         
; Civic Center
RG2              VOLUME    1.000000 1.000000 TIMESERIES 2YRWSSC         
; Twinbrook Community Center
RG3              VOLUME    1.000000 1.000000 TIMESERIES 2YRWSSC         

[SUBCATCHMENTS]
;;Name           Rain Gage        Outlet           Area     %Imperv  Width    %Slope   CurbLen  SnowPack        
;;-------------- ---------------- ---------------- -------- -------- -------- -------- -------- ----------------
1                DUMMY1           R1166E4          2.729000 0.000000 194.537320 1.391020 0.000000                 
10               DUMMY1           R1926C3          1.715000 0.000000 154.224026 2.678472 0.000000                 
100              DUMMY1           R1965C3          3.507000 0.000000 220.505101 1.355099 0.000000                 
101              DUMMY1           R1955C3          1.348000 0.000000 136.709335 0.099987 0.000000                 
102              DUMMY1           R1969C3          2.939000 0.000000 201.885936 0.329035 0.000000                 
103              DUMMY1           R1952C3          3.754000 0.000000 228.141819 2.442383 0.000000                 
104              DUMMY1           R1945C3          1.242000 0.000000 131.239660 2.593307 0.000000                 
105              DUMMY1           R1967C3          5.649000 0.000000 279.859301 1.968326 0.000000                 
106              DUMMY1           R1950C3          2.328000 0.000000 179.671617 2.548550 0.000000                 
107              DUMMY1           R1932C3          0.576000 0.000000 89.398724 2.030783 0.000000                 
108              DUMMY1           R1933C3          0.422000 0.000000 76.475552 1.133775 0.000000                 
109              DUMMY1           R1931C3          0.465000 0.000000 80.296351 1.868734 0.000000                 
11               DUMMY1           R1882C3          1.013000 0.000000 118.509351 3.176854 0.000000                 
110              DUMMY1           R1942C3          3.187000 0.000000 210.213385 0.789239 0.000000                 
111              DUMMY1           R1934C3          0.851000 0.000000 108.626082 2.353840 0.000000                 
112              DUMMY1           R1930C3          1.852000 0.000000 160.264274 1.838284 0.000000                 
113              DUMMY1           R1949C3          1.050000 0.000000 120.677420 6.256783 0.000000                 
114              DUMMY1           R1948C3          1.990000 0.000000 166.101689 3.445039 0.000000                 
115              DUMMY1           R1937C3          0.539000 0.000000 86.489833 2.487504 0.000000                 
116              DUMMY1           R1936C3          1.867000 0.000000 160.903227 1.951631 0.000000                 
117              DUMMY1           R1939C3          0.421000 0.000000 76.421141 3.939525 0.000000                 
118              DUMMY1           R1938C3          1.706000 0.000000 153.796382 6.141946 0.000000                 
119              DUMMY1           R2083D3          0.693000 0.000000 98.053083 1.315293 0.000000                 
12               DUMMY1           R1733C4          1.314000 0.000000 134.994660 3.493804 0.000000                 
120              DUMMY1           R1889C3          0.793000 0.000000 104.859052 4.088340 0.000000                 
121              DUMMY1           R1888C3          0.623000 0.000000 92.964663 5.469480 0.000000                 
122              DUMMY1           R1887C3          0.643000 0.000000 94.459058 6.576437 0.000000                 
123              DUMMY1           R2082C3          2.064000 0.000000 169.182618 4.037095 0.000000                 
124              DUMMY1           R1878C3          3.430000 0.000000 218.086637 3.181120 0.000000                 
125              DUMMY1           R1901C3          1.727000 0.000000 154.753560 1.415520 0.000000                 
126              DUMMY1           R1940C3          0.537000 0.000000 86.329369 0.792703 0.000000                 
127              DUMMY1           R1817C3          1.540000 0.000000 146.145716 2.304626 0.000000                 
128              DUMMY1           R1874C3          2.794000 0.000000 196.829553 2.498019 0.000000                 
129              DUMMY1           R1870C3          1.527000 0.000000 145.494370 11.451600 0.000000                 
13               DUMMY1           R1784C4          3.676000 0.000000 225.752961 4.888755 0.000000                 
130              DUMMY1           R1884C3          0.579000 0.000000 89.635711 2.029005 0.000000                 
131              DUMMY1           R1886C3          0.631000 0.000000 93.514886 2.029005 0.000000                 
132              DUMMY1           R6074C4          1.997000 0.000000 166.412765 6.568243 0.000000                 
133              DUMMY1           R6073C4          4.264000 0.000000 243.140643 0.814789 0.000000                 
134              DUMMY1           R2050C4          1.299000 0.000000 134.185946 1.568507 0.000000                 
135              DUMMY1           R5894C4          0.633000 0.000000 93.692643 0.263187 0.000000                 
136              DUMMY1           R5896C4          0.437000 0.000000 77.796751 5.460599 0.000000                 
137              DUMMY1           R5898C4          0.796000 0.000000 105.070409 1.911206 0.000000                 
138              DUMMY1           R6072C3          1.362000 0.000000 137.407378 0.400662 0.000000                 
139              DUMMY1           R2054C3          2.170000 0.000000 173.439959 0.861585 0.000000                 
14               DUMMY1           R1715C4          20.014000 0.000000 526.789417 2.094478 0.000000                 
140              DUMMY1           R5887C3          2.938000 0.000000 201.837854 1.342649 0.000000                 
141              DUMMY1           R2057C3          3.665000 0.000000 225.427204 2.236890 0.000000                 
142              DUMMY1           R2055C4          8.658000 0.000000 346.479964 5.324488 0.000000                 
143              DUMMY1           R2080C3          0.701000 0.000000 98.617097 7.408956 0.000000                 
144              DUMMY1           R2070C3          2.636000 0.000000 191.187068 1.769855 0.000000                 
145              DUMMY1           R2039C4          11.080000 0.000000 391.955944 0.662293 0.000000                 
146              DUMMY1           R1924C3          0.807000 0.000000 105.806831 1.215528 0.000000                 
147              DUMMY1           R1922C3          3.351000 0.000000 215.560662 0.608963 0.000000                 
148              DUMMY1           R6056C3          0.889000 0.000000 111.024855 0.192048 0.000000                 
149              DUMMY1           R1866C3          0.423000 0.000000 76.629509 4.664684 0.000000                 
15               DUMMY1           R1462D4          6.137000 0.000000 291.700236 2.739719 0.000000                 
150              DUMMY1           R6182C3          1.744000 0.000000 155.513278 1.039449 0.000000                 
151              DUMMY1           R2061C4          1.003000 0.000000 117.928779 2.529215 0.000000                 
152              DUMMY1           R2069C4          0.957000 0.000000 115.204828 1.834286 0.000000                 
153              DUMMY1           R2071C4          0.785000 0.000000 104.355365 0.427305 0.000000                 
154              DUMMY1           R6224C4          3.105000 0.000000 207.504782 0.761237 0.000000                 
155              DUMMY1           R2042C4          6.482000 0.000000 299.796941 0.919364 0.000000                 
156              DUMMY1           R2067C4          1.093000 0.000000 123.111687 1.814910 0.000000                 
157              DUMMY1           R2075C4          0.601000 0.000000 91.309284 3.695595 0.000000                 
158              DUMMY1           R2077C4          1.669000 0.000000 152.114803 1.182118 0.000000                 
159              DUMMY1           R2066C4          1.635000 0.000000 150.552637 4.684363 0.000000                 
16               DUMMY1           R2138D3          17.879000 0.000000 497.904217 3.543057 0.000000                 
160              DUMMY1           R2073C4          2.639000 0.000000 191.284950 1.042671 0.000000                 
161              DUMMY1           R2064C4          1.946000 0.000000 164.280260 1.202450 0.000000                 
162              DUMMY1           R2036C3          1.776000 0.000000 156.911268 2.499786 0.000000                 
163              DUMMY1           R2070C4          1.198000 0.000000 128.867487 0.000000 0.000000                 
164              DUMMY1           R2068C4          0.979000 0.000000 116.515274 1.367351 0.000000                 
165              DUMMY1           R2062C4          1.435000 0.000000 141.052294 0.470370 0.000000                 
166              DUMMY1           R1760C4          2.334000 0.000000 179.906838 2.706126 0.000000                 
167              DUMMY1           R1766C4          3.846000 0.000000 230.917600 0.899536 0.000000                 
168              DUMMY1           R1764C4          3.168000 0.000000 209.575908 1.185906 0.000000                 
169              DUMMY1           R1746C4          6.607000 0.000000 302.680633 0.000000 0.000000                 
17               DUMMY1           R2059C4          1.871000 0.000000 161.058265 3.385909 0.000000                 
170              DUMMY1           R1763C4          1.773000 0.000000 156.787507 0.842811 0.000000                 
171              DUMMY1           R1758C4          3.285000 0.000000 213.404694 1.393697 0.000000                 
172              DUMMY1           R1751C4          2.795000 0.000000 196.853503 5.426889 0.000000                 
173              DUMMY1           R1743C4          2.809000 0.000000 197.360694 2.315495 0.000000                 
174              DUMMY1           R1756C4          8.461000 0.000000 342.507366 3.926038 0.000000                 
175              DUMMY1           R1739C4          0.842000 0.000000 108.069399 1.559052 0.000000                 
176              DUMMY1           R1777C4          0.356000 0.000000 70.307087 1.500008 0.000000                 
177              DUMMY1           R1776C4          0.572000 0.000000 89.056854 1.550671 0.000000                 
178              DUMMY1           R1772C4          0.568000 0.000000 88.713666 0.679796 0.000000                 
179              DUMMY1           R1768C4          1.794000 0.000000 157.730930 5.875087 0.000000                 
18               DUMMY1           R1805D4          1.509000 0.000000 144.653299 1.297406 0.000000                 
180              DUMMY1           R1770C4          0.630000 0.000000 93.500058 1.978805 0.000000                 
181              DUMMY1           R1753C4          3.710000 0.000000 226.797744 1.601641 0.000000                 
182              DUMMY1           R1721C4          2.099000 0.000000 170.578315 2.840952 0.000000                 
183              DUMMY1           R1728D4          1.003000 0.000000 117.940536 0.838951 0.000000                 
184              DUMMY1           R2858D3          3.844000 0.000000 230.872562 2.878748 0.000000                 
185              DUMMY1           R2117D3          1.367000 0.000000 137.679562 2.221827 0.000000                 
186              DUMMY1           R2115D3          0.479000 0.000000 81.487642 2.387873 0.000000                 
187              DUMMY1           R2114D3          2.707000 0.000000 193.719505 5.584826 0.000000                 
188              DUMMY1           R2088D3          0.581000 0.000000 89.716112 4.824129 0.000000                 
189              DUMMY1           R2129D3          0.640000 0.000000 94.201826 4.068488 0.000000                 
19               DUMMY1           R1057E4          2.999000 0.000000 203.922341 1.707093 0.000000                 
190              DUMMY1           R2128D3          1.089000 0.000000 122.886228 4.819482 0.000000                 
191              DUMMY1           R2103D3          2.035000 0.000000 167.977665 9.132674 0.000000                 
192              DUMMY1           R2101D3          1.931000 0.000000 163.629073 1.338550 0.000000                 
193              DUMMY1           R6227D3          0.715000 0.000000 99.533769 2.896178 0.000000                 
194              DUMMY1           R2085D3          3.624000 0.000000 224.153463 0.949195 0.000000                 
195              DUMMY1           R2176D3          3.667000 0.000000 225.497927 3.977908 0.000000                 
196              DUMMY1           R2186D3          3.974000 0.000000 234.732021 1.205796 0.000000                 
197              DUMMY1           R2134D3          2.764000 0.000000 195.762948 6.816308 0.000000                 
198              DUMMY1           R2146D3          0.176000 0.000000 49.413886 0.730952 0.000000                 
199              DUMMY1           R2133D3          0.666000 0.000000 96.117893 3.333461 0.000000                 
2                DUMMY1           R1140E4          5.435000 0.000000 274.521965 7.332258 0.000000                 
20               DUMMY1           R1110E4          23.799000 0.000000 574.451345 0.958482 0.000000                 
200              DUMMY1           R2130D3          1.364000 0.000000 137.518333 0.809371 0.000000                 
201              DUMMY1           R2174D3          1.121000 0.000000 124.684044 0.695174 0.000000                 
202              DUMMY1           R2150D3          0.741000 0.000000 101.355923 5.163776 0.000000                 
203              DUMMY1           R2148D3          4.818000 0.000000 258.465590 3.006249 0.000000                 
204              DUMMY1           R2159D3          3.182000 0.000000 210.038519 1.411198 0.000000                 
205              DUMMY1           R2173D3          0.361000 0.000000 70.759227 0.910451 0.000000                 
206              DUMMY1           R2166D3          1.874000 0.000000 161.178746 0.000000 0.000000                 
207              DUMMY1           R2161D3          1.540000 0.000000 146.140972 0.293611 0.000000                 
208              DUMMY1           C2164D3          0.616000 0.000000 92.441167 0.000000 0.000000                 
209              DUMMY1           R2163D3          2.258000 0.000000 176.946069 0.225354 0.000000                 
21               DUMMY1           R1414F4          12.181000 0.000000 410.967275 0.882089 0.000000                 
210              DUMMY1           R2168D3          4.687000 0.000000 254.919414 5.311514 0.000000                 
211              DUMMY1           R5739D4          1.054000 0.000000 120.872589 2.168222 0.000000                 
212              DUMMY1           R1836D4          3.821000 0.000000 230.159781 3.355549 0.000000                 
213              DUMMY1           R1842D4          0.456000 0.000000 79.480610 5.632701 0.000000                 
214              DUMMY1           R1850D4          0.524000 0.000000 85.254604 4.497645 0.000000                 
215              DUMMY1           R1840D4          2.453000 0.000000 184.435562 4.469122 0.000000                 
216              DUMMY1           R1829D4          2.824000 0.000000 197.883403 1.551909 0.000000                 
217              DUMMY1           R5963D3          2.129000 0.000000 171.805382 2.021281 0.000000                 
218              DUMMY1           R1834D4          1.723000 0.000000 154.574260 4.262359 0.000000                 
219              DUMMY1           R1833D4          0.948000 0.000000 114.625663 6.127981 0.000000                 
22               DUMMY1           R1620D4          2.919000 0.000000 201.166946 3.430932 0.000000                 
220              DUMMY1           R1823D4          3.234000 0.000000 211.751216 3.582510 0.000000                 
221              DUMMY1           R1826D4          2.500000 0.000000 186.193877 0.679879 0.000000                 
222              DUMMY1           R1853D4          0.788000 0.000000 104.547848 1.539024 0.000000                 
223              DUMMY1           R1851D4          0.406000 0.000000 75.001826 2.526261 0.000000                 
224              DUMMY1           R1852D4          2.879000 0.000000 199.787144 0.836291 0.000000                 
225              DUMMY1           R1849D4          2.105000 0.000000 170.838232 7.081306 0.000000                 
226              DUMMY1           R5735D4          0.483000 0.000000 81.827246 1.738228 0.000000                 
227              DUMMY1           R1845D4          2.044000 0.000000 168.352823 0.490207 0.000000                 
228              DUMMY1           R1815D4          0.880000 0.000000 110.467708 2.538974 0.000000                 
229              DUMMY1           R1819D4          1.649000 0.000000 151.209704 2.579530 0.000000                 
23               DUMMY1           R5911D4          5.925000 0.000000 286.627052 7.396484 0.000000                 
230              DUMMY1           R1809D4          1.054000 0.000000 120.878324 1.135936 0.000000                 
231              DUMMY1           R1807D4          3.101000 0.000000 207.364411 4.976704 0.000000                 
232              DUMMY1           R1816D4          2.110000 0.000000 171.028857 1.723648 0.000000                 
233              DUMMY1           R1813D4          2.942000 0.000000 201.971769 3.214983 0.000000                 
234              DUMMY1           R1810D4          0.421000 0.000000 76.448351 8.679192 0.000000                 
235              DUMMY1           R1812D4          0.901000 0.000000 111.777870 4.011844 0.000000                 
236              DUMMY1           R1811D4          1.872000 0.000000 161.109911 1.119867 0.000000                 
237              DUMMY1           R1580D4          5.324000 0.000000 271.704302 0.727697 0.000000                 
238              DUMMY1           R1581D4          0.234000 0.000000 56.900067 2.421868 0.000000                 
239              DUMMY1           R6225D4          0.175000 0.000000 49.217074 4.183533 0.000000                 
24               DUMMY1           R2030C3          8.328000 0.000000 339.816848 2.483571 0.000000                 
240              DUMMY1           R6226D4          0.331000 0.000000 67.786871 0.650698 0.000000                 
241              DUMMY1           R1604D4          0.191000 0.000000 51.394521 2.437366 0.000000                 
242              DUMMY1           R1584D4          0.249000 0.000000 58.722864 0.671372 0.000000                 
243              DUMMY1           R1583D4          0.438000 0.000000 77.965884 2.709136 0.000000                 
244              DUMMY1           R1582D4          0.277000 0.000000 62.007507 0.539512 0.000000                 
245              DUMMY1           R1579D4          1.772000 0.000000 156.760974 1.785996 0.000000                 
246              DUMMY1           R1601D4          4.121000 0.000000 239.045834 2.136408 0.000000                 
247              DUMMY1           R1587D4          0.857000 0.000000 109.021064 0.856889 0.000000                 
248              DUMMY1           R1607D4          0.452000 0.000000 79.183485 1.395368 0.000000                 
249              DUMMY1           R1605D4          4.310000 0.000000 244.471435 7.493011 0.000000                 
25               DUMMY1           R5999B3          1.856000 0.000000 160.419929 0.893702 0.000000                 
250              DUMMY1           R1585D4          3.434000 0.000000 218.201048 2.920459 0.000000                 
251              DUMMY1           R1568D4          4.746000 0.000000 256.537880 2.240471 0.000000                 
252              DUMMY1           R1574D4          0.303000 0.000000 64.817257 0.122892 0.000000                 
253              DUMMY1           R1573D4          1.512000 0.000000 144.782645 1.431732 0.000000                 
254              DUMMY1           R1569D4          0.544000 0.000000 86.865756 0.293788 0.000000                 
255              DUMMY1           R1565D4          4.822000 0.000000 258.586265 3.548146 0.000000                 
256              DUMMY1           R1571D4          3.254000 0.000000 212.414804 0.962475 0.000000                 
257              DUMMY1           R1561D4          0.966000 0.000000 115.745163 7.373621 0.000000                 
258              DUMMY1           R1562D4          0.994000 0.000000 117.374870 0.000000 0.000000                 
259              DUMMY1           R1559D4          0.337000 0.000000 68.347060 7.025839 0.000000                 
26               DUMMY1           R2026B3          13.664000 0.000000 435.261561 2.546929 0.000000                 
260              DUMMY1           R1557D4          2.073000 0.000000 169.555109 4.032060 0.000000                 
261              DUMMY1           R1639D4          0.886000 0.000000 110.843620 7.241271 0.000000                 
262              DUMMY1           R5742D4          0.925000 0.000000 113.256640 5.846040 0.000000                 
263              DUMMY1           R1656D4          0.295000 0.000000 63.912485 5.277978 0.000000                 
264              DUMMY1           R1652D4          3.042000 0.000000 205.362141 2.717625 0.000000                 
265              DUMMY1           R1640D4          3.403000 0.000000 217.226633 2.713169 0.000000                 
266              DUMMY1           R1645D4          0.375000 0.000000 72.117866 1.912433 0.000000                 
267              DUMMY1           R1576D4          3.593000 0.000000 223.189504 1.333299 0.000000                 
268              DUMMY1           R1644D4          4.470000 0.000000 248.964640 0.984196 0.000000                 
269              DUMMY1           R1635D4          3.709000 0.000000 226.779402 1.939653 0.000000                 
27               DUMMY1           R1983C3          1.038000 0.000000 119.957158 3.158290 0.000000                 
270              DUMMY1           R1663D4          0.622000 0.000000 92.875130 1.817191 0.000000                 
271              DUMMY1           R1665D4          0.697000 0.000000 98.314342 1.526023 0.000000                 
272              DUMMY1           R1705D4          0.413000 0.000000 75.710231 2.150307 0.000000                 
273              DUMMY1           R1664D4          1.259000 0.000000 132.103157 1.362113 0.000000                 
274              DUMMY1           R1704D4          2.874000 0.000000 199.620510 2.676127 0.000000                 
275              DUMMY1           R1660D4          1.363000 0.000000 137.457823 5.034691 0.000000                 
276              DUMMY1           R1659D4          0.415000 0.000000 75.893150 3.663208 0.000000                 
277              DUMMY1           R1658D4          1.808000 0.000000 158.318809 6.635821 0.000000                 
278              DUMMY1           R1672D4          1.053000 0.000000 120.815219 6.278562 0.000000                 
279              DUMMY1           R1707D4          0.676000 0.000000 96.786360 4.294689 0.000000                 
28               DUMMY1           R1981C3          6.127000 0.000000 291.479121 0.336323 0.000000                 
280              DUMMY1           R1706D4          1.846000 0.000000 159.978513 1.181237 0.000000                 
281              DUMMY1           R5738D4          0.452000 0.000000 79.183485 5.845919 0.000000                 
282              DUMMY1           R1667D4          4.366000 0.000000 246.048741 0.927418 0.000000                 
283              DUMMY1           R1657D4          0.872000 0.000000 109.926659 5.462625 0.000000                 
284              DUMMY1           R1711D4          0.477000 0.000000 81.359925 1.921353 0.000000                 
285              DUMMY1           R1516D4          0.390000 0.000000 73.564555 0.753124 0.000000                 
286              DUMMY1           R1509D4          0.557000 0.000000 87.889281 1.994454 0.000000                 
287              DUMMY1           R1710D4          0.134000 0.000000 43.136568 0.216466 0.000000                 
288              DUMMY1           R1682D4          0.268000 0.000000 60.924717 5.942600 0.000000                 
289              DUMMY1           R1709D4          0.249000 0.000000 58.722864 2.327547 0.000000                 
29               DUMMY1           R1987C3          2.511000 0.000000 186.610435 1.073022 0.000000                 
290              DUMMY1           R1708D4          0.907000 0.000000 112.137026 3.855718 0.000000                 
291              DUMMY1           R5913D4          0.203000 0.000000 53.066971 2.693927 0.000000                 
292              DUMMY1           R5908D4          0.257000 0.000000 59.671485 4.645159 0.000000                 
293              DUMMY1           R5959D4          2.707000 0.000000 193.737398 0.482247 0.000000                 
294              DUMMY1           R1686D4          0.700000 0.000000 98.490476 0.262724 0.000000                 
295              DUMMY1           R1683D4          2.208000 0.000000 174.952314 5.750474 0.000000                 
296              DUMMY1           R1681D4          3.102000 0.000000 207.377784 3.963383 0.000000                 
297              DUMMY1           R6068D4          1.848000 0.000000 160.091146 1.067543 0.000000                 
298              DUMMY1           R5906D4          0.921000 0.000000 112.999253 2.912922 0.000000                 
299              DUMMY1           R1625D4          0.545000 0.000000 86.897674 5.554278 0.000000                 
3                DUMMY1           R1487D4          2.435000 0.000000 183.761482 2.930904 0.000000                 
30               DUMMY1           R1986C3          3.341000 0.000000 215.248467 1.382430 0.000000                 
300              DUMMY1           R1623D4          3.778000 0.000000 228.869972 0.892832 0.000000                 
301              DUMMY1           R6069D4          1.913000 0.000000 162.851875 5.171702 0.000000                 
302              DUMMY1           R1626D4          0.292000 0.000000 63.684284 3.700982 0.000000                 
303              DUMMY1           R1618D4          0.299000 0.000000 64.409530 5.153478 0.000000                 
304              DUMMY1           R1520D4          0.581000 0.000000 89.754742 1.636465 0.000000                 
305              DUMMY1           R1518D4          3.075000 0.000000 206.496682 1.667773 0.000000                 
306              DUMMY1           R1508D4          3.398000 0.000000 217.057417 3.747618 0.000000                 
307              DUMMY1           R1514D4          4.355000 0.000000 245.727319 3.225270 0.000000                 
308              DUMMY1           R1510D4          1.048000 0.000000 120.516456 3.384550 0.000000                 
309              DUMMY1           R1505D4          2.861000 0.000000 199.178952 0.895723 0.000000                 
31               DUMMY1           R1988C3          1.242000 0.000000 131.234377 0.499856 0.000000                 
310              DUMMY1           R1536D4          0.562000 0.000000 88.243532 0.366407 0.000000                 
311              DUMMY1           R1530D4          0.762000 0.000000 102.789042 1.064575 0.000000                 
312              DUMMY1           R1528D4          3.839000 0.000000 230.710350 2.195162 0.000000                 
313              DUMMY1           R1526D4          0.474000 0.000000 81.035475 3.878643 0.000000                 
314              DUMMY1           R1535D4          1.776000 0.000000 156.937775 0.668405 0.000000                 
315              DUMMY1           R1537D4          1.008000 0.000000 118.234081 0.000000 0.000000                 
316              DUMMY1           R1524D4          1.921000 0.000000 163.221824 4.414124 0.000000                 
317              DUMMY1           R1532D4          0.738000 0.000000 101.177925 2.171774 0.000000                 
318              DUMMY1           R1531D4          1.758000 0.000000 156.131712 5.997859 0.000000                 