[TITLE]
;;Project Title/Notes
Scenario Run :  BASE
 FIGURE C1

[OPTIONS]
;;Option             Value
FLOW_UNITS           CFS
INFILTRATION         HORTON
FLOW_ROUTING         DYNWAVE
LINK_OFFSETS         DEPTH
MIN_SLOPE            0
ALLOW_PONDING        NO
SKIP_STEADY_STATE    NO

START_DATE           08/13/2012
START_TIME           00:00:00
REPORT_START_DATE    08/13/2012
REPORT_START_TIME    00:00:00
END_DATE             08/14/2012
END_TIME             00:00:00
SWEEP_START          01/01
SWEEP_END            12/31
DRY_DAYS             5.000000
REPORT_STEP          00:05:00
WET_STEP             00:01:00
DRY_STEP             00:01:00
ROUTING_STEP         0:00:10 

INERTIAL_DAMPING     NONE
NORMAL_FLOW_LIMITED  FROUDE
FORCE_MAIN_EQUATION  H-W
VARIABLE_STEP        0.75
LENGTHENING_STEP     5
MIN_SURFAREA         12.557
MAX_TRIALS           8
HEAD_TOLERANCE       0.000100
SYS_FLOW_TOL         5
LAT_FLOW_TOL         5
MINIMUM_STEP         0
THREADS              1

[EVAPORATION]
;;Data Source    Parameters
;;-------------- ----------------
CONSTANT         0.0
DRY_ONLY         NO

[RAINGAGES]
;;Name           Format    Interval SCF      Source    
;;-------------- --------- ------ ------ ----------
; Bismarck SCS Type II 6 hr storm
BISMARCK_SCS_II_6HR CUMULATIVE 0.050000 1.000000 TIMESERIES BISMARCK_SCS_II_6HR_100YR

[SUBCATCHMENTS]
;;Name           Rain Gage        Outlet           Area     %Imperv  Width    %Slope   CurbLen  SnowPack        
;;-------------- ---------------- ---------------- -------- -------- -------- -------- -------- ----------------
W1               BISMARCK_SCS_II_6HR DEFACTO_1804_W_OF_USH83 84.603028 0.000000 500.000000 0.500000 0.000000                 
W10              BISMARCK_SCS_II_6HR DET_BASIN_NRE_W_NWOOD_N 13.001451 0.000000 500.000000 0.500000 0.000000                 
W11              BISMARCK_SCS_II_6HR DET_BASIN_NRE_E_PROP_LINE 35.822017 0.000000 500.000000 0.500000 0.000000                 
W12              BISMARCK_SCS_II_6HR DEFACTO_SW_84TH_RIDGELAND 14.955185 0.000000 500.000000 0.500000 0.000000                 
W13              BISMARCK_SCS_II_6HR JCT-42           45.337919 0.000000 500.000000 0.500000 0.000000                 
W14              BISMARCK_SCS_II_6HR DEFACTO_W_OF_USH83_NE_OF_79TH 26.379683 0.000000 500.000000 0.500000 0.000000                 
W15              BISMARCK_SCS_II_6HR DEFACTO_W_OF_WASH_S_OF_1804 92.147970 0.000000 500.000000 0.500000 0.000000                 
W16              BISMARCK_SCS_II_6HR 1804_W_OF_WASH   38.880882 0.000000 500.000000 0.500000 0.000000                 
W17              BISMARCK_SCS_II_6HR DET_BASIN_NRE_W_NWOOD_CENT 90.078242 0.000000 500.000000 0.500000 0.000000                 
W18              BISMARCK_SCS_II_6HR DEFACTO_USH83_UPPER 158.641594 0.000000 500.000000 0.500000 0.000000                 
W19              BISMARCK_SCS_II_6HR NODE71.2.1       150.307775 0.000000 500.000000 0.500000 0.000000                 
W2               BISMARCK_SCS_II_6HR DET_BASIN_NRE_W_RIDGELAND_S 33.780786 0.000000 500.000000 0.500000 0.000000                 
W20              BISMARCK_SCS_II_6HR JCT-138          35.908869 0.000000 500.000000 0.500000 0.000000                 
W21              BISMARCK_SCS_II_6HR JCT-138          14.477743 0.000000 500.000000 0.500000 0.000000                 
W22              BISMARCK_SCS_II_6HR NODE72           45.488367 0.000000 500.000000 0.500000 0.000000                 
W23              BISMARCK_SCS_II_6HR DEFACTO_E_OF_WASH_N_OF_1804 8.691637 0.000000 500.000000 0.500000 0.000000                 
W24              BISMARCK_SCS_II_6HR NODE76.2         59.588720 0.000000 500.000000 0.500000 0.000000                 
W25              BISMARCK_SCS_II_6HR NODE76.1.1       118.222051 0.000000 500.000000 0.500000 0.000000                 
W26              BISMARCK_SCS_II_6HR NODE70.2         46.285020 0.000000 500.000000 0.500000 0.000000                 
W27              BISMARCK_SCS_II_6HR NODE70.1.1       85.405110 0.000000 500.000000 0.500000 0.000000                 
W28              BISMARCK_SCS_II_6HR NODE71.1.1       74.079989 0.000000 500.000000 0.500000 0.000000                 
W29              BISMARCK_SCS_II_6HR DET_BASIN_NRE_W_NWOOD_CENT 75.196381 0.000000 500.000000 0.500000 0.000000                 
W3               BISMARCK_SCS_II_6HR DET_BASIN_NRE_W_NWOOD_CENT 32.348299 0.000000 500.000000 0.500000 0.000000                 
W30              BISMARCK_SCS_II_6HR DEFACTO_W_OF_USH83_N_OF_11TH 12.179143 0.000000 500.000000 0.500000 0.000000                 
W31              BISMARCK_SCS_II_6HR DEFACTO_W_OF_WASH_N_OF_RDGLND_LP 11.173397 0.000000 500.000000 0.500000 0.000000                 
W32              BISMARCK_SCS_II_6HR DEFACTO_S_OF_RDGLND_LP_E_OF_WASH 4.694307 0.000000 500.000000 0.500000 0.000000                 
W33              BISMARCK_SCS_II_6HR DET_BASIN_NRE_W_NWOOD_S 15.964393 0.000000 500.000000 0.500000 0.000000                 
W34              BISMARCK_SCS_II_6HR DEFACTO_11TH     24.412856 0.000000 500.000000 0.500000 0.000000                 
W35              BISMARCK_SCS_II_6HR DEFACTO_N_OF_79TH_E_OF_PRIVDR 11.190461 0.000000 500.000000 0.500000 0.000000                 
W36              BISMARCK_SCS_II_6HR DEFACTO_PRIVATE_DR_N_OF_79TH_1 11.386912 0.000000 500.000000 0.500000 0.000000                 
W37              BISMARCK_SCS_II_6HR DEFACTO_N_OF_SNFLWR_W_OF_CRWAY 29.699556 0.000000 500.000000 0.500000 0.000000                 
W38              BISMARCK_SCS_II_6HR CRWAY_N_OF_84TH  18.963089 0.000000 500.000000 0.500000 0.000000                 
W39              BISMARCK_SCS_II_6HR DEFACTO_NE_84TH_RIDGELAND 34.236971 0.000000 500.000000 0.500000 0.000000                 
W4               BISMARCK_SCS_II_6HR DET_BASIN_NRE_INLINE 14.971090 0.000000 500.000000 0.500000 0.000000                 
W40              BISMARCK_SCS_II_6HR DEFACTO_USH83_N_OF_1804 40.404763 0.000000 500.000000 0.500000 0.000000                 
W41              BISMARCK_SCS_II_6HR DEFACTO_NW_84TH_RIDGELAND 5.043660 0.000000 500.000000 0.500000 0.000000                 
W42              BISMARCK_SCS_II_6HR DET_BASIN_NRE_N_PARKSIDE 7.879445 0.000000 500.000000 0.500000 0.000000                 
W43              BISMARCK_SCS_II_6HR DEFACTO_NE_SNFLWR_SAGE 15.734916 0.000000 500.000000 0.500000 0.000000                 
W44              BISMARCK_SCS_II_6HR DEFACTO_N_OF_SNFLWR_W_OF_SAGE 3.070261 0.000000 500.000000 0.500000 0.000000                 
W45              BISMARCK_SCS_II_6HR DEFACTO_84TH_FENNEL 34.773569 0.000000 500.000000 0.500000 0.000000                 
W46              BISMARCK_SCS_II_6HR DEFACTO_E_OF_FENNEL_N_OF_84TH 17.628249 0.000000 500.000000 0.500000 0.000000                 
W47              BISMARCK_SCS_II_6HR JCT-42           21.056164 0.000000 500.000000 0.500000 0.000000                 
W48              BISMARCK_SCS_II_6HR DEFACTO_79TH_PRIVETE_DR 7.747093 0.000000 500.000000 0.500000 0.000000                 
W5               BISMARCK_SCS_II_6HR DET_BASIN_NRE_W_RIDGELAND_S 41.717986 0.000000 500.000000 0.500000 0.000000                 
W6               BISMARCK_SCS_II_6HR JCT-68           85.387223 0.000000 500.000000 0.500000 0.000000                 
W7               BISMARCK_SCS_II_6HR DEFACTO_PRIVATE_DR_S_OF_79TH 29.244817 0.000000 500.000000 0.500000 0.000000                 
W8               BISMARCK_SCS_II_6HR 3-4C2            26.297325 0.000000 500.000000 0.500000 0.000000                 
W9               BISMARCK_SCS_II_6HR DET_BASIN_NRE_W_RIDGELAND_N 26.564060 0.000000 500.000000 0.500000 0.000000                 

[SUBAREAS]
;;Subcatchment   N-Imperv   N-Perv     S-Imperv   S-Perv     PctZero    RouteTo    PctRouted 
;;-------------- ---------- ---------- ---------- ---------- ---------- ---------- ----------
W1               0.100000   0.001000   0.050000   0.050000   25.000000  OUTLET    
W10              0.100000   0.001000   0.050000   0.050000   25.000000  OUTLET    
W11              0.100000   0.001000   0.050000   0.050000   25.000000  OUTLET    
W12              0.100000   0.001000   0.050000   0.050000   25.000000  OUTLET    
W13              0.100000   0.001000   0.050000   0.050000   25.000000  OUTLET    
W14              0.100000   0.001000   0.050000   0.050000   25.000000  OUTLET    
W15              0.100000   0.001000   0.050000   0.050000   25.000000  OUTLET    
W16              0.100000   0.001000   0.050000   0.050000   25.000000  OUTLET    
W17              0.100000   0.001000   0.050000   0.050000   25.000000  OUTLET    
W18              0.100000   0.001000   0.050000   0.050000   25.000000  OUTLET    
W19              0.100000   0.001000   0.050000   0.050000   25.000000  OUTLET    
W2               0.100000   0.001000   0.050000   0.050000   25.000000  OUTLET    
W20              0.100000   0.001000   0.050000   0.050000   25.000000  OUTLET    
W21              0.100000   0.001000   0.050000   0.050000   25.000000  OUTLET    
W22              0.100000   0.001000   0.050000   0.050000   25.000000  OUTLET    
W23              0.100000   0.001000   0.050000   0.050000   25.000000  OUTLET    
W24              0.100000   0.001000   0.050000   0.050000   25.000000  OUTLET    
W25              0.100000   0.001000   0.050000   0.050000   25.000000  OUTLET    
W26              0.100000   0.001000   0.050000   0.050000   25.000000  OUTLET    
W27              0.100000   0.001000   0.050000   0.050000   25.000000  OUTLET    
W28              0.100000   0.001000   0.050000   0.050000   25.000000  OUTLET    
W29              0.100000   0.001000   0.050000   0.050000   25.000000  OUTLET    
W3               0.100000   0.001000   0.050000   0.050000   25.000000  OUTLET    
W30              0.100000   0.001000   0.050000   0.050000   25.000000  OUTLET    
W31              0.100000   0.001000   0.050000   0.050000   25.000000  OUTLET    
W32              0.100000   0.001000   0.050000   0.050000   25.000000  OUTLET    
W33              0.100000   0.001000   0.050000   0.050000   25.000000  OUTLET    
W34              0.100000   0.001000   0.050000   0.050000   25.000000  OUTLET    
W35              0.100000   0.001000   0.050000   0.050000   25.000000  OUTLET    
W36              0.100000   0.001000   0.050000   0.050000   25.000000  OUTLET    
W37              0.100000   0.001000   0.050000   0.050000   25.000000  OUTLET    
W38              0.100000   0.001000   0.050000   0.050000   25.000000  OUTLET    
W39              0.100000   0.001000   0.050000   0.050000   25.000000  OUTLET    
W4               0.100000   0.001000   0.050000   0.050000   25.000000  OUTLET    
W40              0.100000   0.001000   0.050000   0.050000   25.000000  OUTLET    
W41              0.100000   0.001000   0.050000   0.050000   25.000000  OUTLET    
W42              0.100000   0.001000   0.050000   0.050000   25.000000  OUTLET    
W43              0.100000   0.001000   0.050000   0.050000   25.000000  OUTLET    
W44              0.100000   0.001000   0.050000   0.050000   25.000000  OUTLET    
W45              0.100000   0.001000   0.050000   0.050000   25.000000  OUTLET    
W46              0.100000   0.001000   0.050000   0.050000   25.000000  OUTLET    
W47              0.100000   0.001000   0.050000   0.050000   25.000000  OUTLET    
W48              0.100000   0.001000   0.050000   0.050000   25.000000  OUTLET    
W5               0.100000   0.001000   0.050000   0.050000   25.000000  OUTLET    
W6               0.100000   0.001000   0.050000   0.050000   25.000000  OUTLET    
W7               0.100000   0.001000   0.050000   0.050000   25.000000  OUTLET    
W8               0.100000   0.001000   0.050000   0.050000   25.000000  OUTLET    
W9               0.100000   0.001000   0.050000   0.050000   25.000000  OUTLET    

[INFILTRATION]
;;Subcatchment   MaxRate    MinRate    Decay      DryTime    MaxInfil  
;;-------------- ---------- ---------- ---------- ---------- ----------
W1               2.000000   0.260000   4.000000   7.000000   0.000000  
W10              2.000000   0.260000   4.000000   7.000000   0.000000  
W11              2.000000   0.260000   4.000000   7.000000   0.000000  
W12              2.000000   0.260000   4.000000   7.000000   0.000000  
W13              2.000000   0.260000   4.000000   7.000000   0.000000  
W14              2.000000   0.260000   4.000000   7.000000   0.000000  
W15              2.000000   0.260000   4.000000   7.000000   0.000000  
W16              2.000000   0.260000   4.000000   7.000000   0.000000  
W17              2.000000   0.260000   4.000000   7.000000   0.000000  
W18              2.000000   0.260000   4.000000   7.000000   0.000000  
W19              2.000000   0.260000   4.000000   7.000000   0.000000  
W2               2.000000   0.260000   4.000000   7.000000   0.000000  
W20              2.000000   0.260000   4.000000   7.000000   0.000000  
W21              2.000000   0.260000   4.000000   7.000000   0.000000  
W22              2.000000   0.260000   4.000000   7.000000   0.000000  
W23              2.000000   0.260000   4.000000   7.000000   0.000000  
W24              2.000000   0.260000   4.000000   7.000000   0.000000  
W25              2.000000   0.260000   4.000000   7.000000   0.000000  
W26              2.000000   0.260000   4.000000   7.000000   0.000000  
W27              2.000000   0.260000   4.000000   7.000000   0.000000  
W28              2.000000   0.260000   4.000000   7.000000   0.000000  
W29              2.000000   0.260000   4.000000   7.000000   0.000000  
W3               2.000000   0.260000   4.000000   7.000000   0.000000  
W30              2.000000   0.260000   4.000000   7.000000   0.000000  
W31              2.000000   0.260000   4.000000   7.000000   0.000000  
W32              2.000000   0.260000   4.000000   7.000000   0.000000  
W33              2.000000   0.260000   4.000000   7.000000   0.000000  
W34              2.000000   0.260000   4.000000   7.000000   0.000000  
W35              2.000000   0.260000   4.000000   7.000000   0.000000  
W36              2.000000   0.260000   4.000000   7.000000   0.000000  
W37              2.000000   0.260000   4.000000   7.000000   0.000000  
W38              2.000000   0.260000   4.000000   7.000000   0.000000  
W39              2.000000   0.260000   4.000000   7.000000   0.000000  
W4               2.000000   0.260000   4.000000   7.000000   0.000000  
W40              2.000000   0.260000   4.000000   7.000000   0.000000  
W41              2.000000   0.260000   4.000000   7.000000   0.000000  
W42              2.000000   0.260000   4.000000   7.000000   0.000000  
W43              2.000000   0.260000   4.000000   7.000000   0.000000  
W44              2.000000   0.260000   4.000000   7.000000   0.000000  
W45              2.000000   0.260000   4.000000   7.000000   0.000000  
W46              2.000000   0.260000   4.000000   7.000000   0.000000  
W47              2.000000   0.260000   4.000000   7.000000   0.000000  
W48              2.000000   0.260000   4.000000   7.000000   0.000000  
W5               2.000000   0.260000   4.000000   7.000000   0.000000  
W6               2.000000   0.260000   4.000000   7.000000   0.000000  
W7               2.000000   0.260000   4.000000   7.000000   0.000000  
W8               2.000000   0.260000   4.000000   7.000000   0.000000  
W9               2.000000   0.260000   4.000000   7.000000   0.000000  

[JUNCTIONS]
;;Name           Elevation  MaxDepth   InitDepth  SurDepth   Aponded   
;;-------------- ---------- ---------- ---------- ---------- ----------
; de facto det N of 1804 and W of Wash
1804_W_OF_WASH   1887.050000 30.000000  0.000000   0.000000   0.000000  
3-4C2            1843.480000 30.000000  0.000000   0.000000   0.000000  
; Upstream of Caraway N of 84th
CRWAY_N_OF_84TH  1900.580000 30.000000  0.000000   0.000000   0.000000  
; Upstream of western driveway N of 79th
DRIVEWAY_N_OF_79TH_1 1861.110000 30.000000  0.000000   0.000000   0.000000  
; Upstream of western driveway S 79th
DRIVEWAY_WESTERN_S_OF_79TH 1859.400000 30.000000  0.000000   0.000000   0.000000  
; New Junction
JCT-102          1886.720000 30.000000  0.000000   0.000000   0.000000  
; New Junction
JCT-104          1884.740000 30.000000  0.000000   0.000000   0.000000  
; New Junction
JCT-106          1902.880000 30.000000  0.000000   0.000000   0.000000  
; New Junction
JCT-108          1903.950000 30.000000  0.000000   0.000000   0.000000  
; New Junction
JCT-110          1898.940000 30.000000  0.000000   0.000000   0.000000  
; New Junction
JCT-116          1860.700000 30.000000  0.000000   0.000000   0.000000  
; New Junction
JCT-118          1859.100000 30.000000  0.000000   0.000000   0.000000  
; New Junction
JCT-120          1862.900000 30.000000  0.000000   0.000000   0.000000  
; New Junction
JCT-122          1907.120000 30.000000  0.000000   0.000000   0.000000  
; New Junction
JCT-124          1907.360000 30.000000  0.000000   0.000000   0.000000  
; New Junction
JCT-126          1912.570000 30.000000  0.000000   0.000000   0.000000  
; New Junction
JCT-128          1900.040000 30.000000  0.000000   0.000000   0.000000  
; New Junction
JCT-130          1882.180000 30.000000  0.000000   0.000000   0.000000  
; New Junction
JCT-132          1861.450000 30.000000  0.000000   0.000000   0.000000  
; New Junction
JCT-134          1850.090000 30.000000  0.000000   0.000000   0.000000  
; New Junction
JCT-136          1844.100000 30.000000  0.000000   0.000000   0.000000  
; New Junction
JCT-138          1788.420000 30.000000  0.000000   0.000000   0.000000  
; New Junction
JCT-140          1792.230000 30.000000  0.000000   0.000000   0.000000  
; New Junction
JCT-142          1796.110000 30.000000  0.000000   0.000000   0.000000  
; New Junction
JCT-144          1797.540000 30.000000  0.000000   0.000000   0.000000  
; New Junction
JCT-146          1804.850000 30.000000  0.000000   0.000000   0.000000  
; New Junction
JCT-148          1839.810000 30.000000  0.000000   0.000000   0.000000  
JCT-24           1879.850000 30.000000  0.000000   0.000000   0.000000  
JCT-28           1873.430000 30.000000  0.000000   0.000000   0.000000  
JCT-34           1902.010000 30.000000  0.000000   0.000000   0.000000  
JCT-38           1885.070000 30.000000  0.000000   0.000000   0.000000  
; New Junction
JCT-40           1882.970000 30.000000  0.000000   0.000000   0.000000  
; New Junction
JCT-42           1869.100000 30.000000  0.000000   0.000000   0.000000  
JCT-46           1886.970000 30.000000  0.000000   0.000000   0.000000  
JCT-50           1886.780000 30.000000  0.000000   0.000000   0.000000  
; New Junction
JCT-56           1858.430000 30.000000  0.000000   0.000000   0.000000  
; New Junction
JCT-60           1861.820000 30.000000  0.000000   0.000000   0.000000  
; New Junction
JCT-64           1860.850000 30.000000  0.000000   0.000000   0.000000  
; New Junction
JCT-68           1843.340000 30.000000  0.000000   0.000000   0.000000  
JCT-72           1876.880000 30.000000  0.000000   0.000000   0.000000  
; New Junction
JCT-80           1857.300000 30.000000  0.000000   0.000000   0.000000  
NODE1071         1801.560000 30.000000  0.000000   0.000000   0.000000  
NODE62           1880.160000 30.000000  0.000000   0.000000   0.000000  
NODE64           1858.960000 30.000000  0.000000   0.000000   0.000000  
NODE68           1832.290000 30.000000  0.000000   0.000000   0.000000  
NODE70           1829.240000 30.000000  0.000000   0.000000   0.000000  
NODE70.1         1820.000000 30.000000  0.000000   0.000000   0.000000  
NODE70.1.1       1815.110000 30.000000  0.000000   0.000000   0.000000  
NODE70.2         1826.490000 30.000000  0.000000   0.000000   0.000000  
NODE71           1812.250000 30.000000  0.000000   0.000000   0.000000  
NODE71.1         1805.820000 30.000000  0.000000   0.000000   0.000000  
NODE71.1.1       1802.980000 30.000000  0.000000   0.000000   0.000000  
NODE71.1.2       1805.320000 30.000000  0.000000   0.000000   0.000000  
NODE71.2         1809.270000 30.000000  0.000000   0.000000   0.000000  
NODE71.2.1       1807.560000 30.000000  0.000000   0.000000   0.000000  
NODE71.3         1809.940000 30.000000  0.000000   0.000000   0.000000  
NODE72           1798.680000 30.000000  0.000000   0.000000   0.000000  
NODE73           1797.820000 30.000000  0.000000   0.000000   0.000000  
NODE73.1         1792.900000 30.000000  0.000000   0.000000   0.000000  
NODE76           1866.270000 30.000000  0.000000   0.000000   0.000000  
NODE76.1         1839.340000 30.000000  0.000000   0.000000   0.000000  
NODE76.1.1       1825.840000 30.000000  0.000000   0.000000   0.000000  
NODE76.2         1852.850000 30.000000  0.000000   0.000000   0.000000  
NODE79           1873.580000 30.000000  0.000000   0.000000   0.000000  
NODE80           1865.870000 30.000000  0.000000   0.000000   0.000000  
NODE82           1856.280000 30.000000  0.000000   0.000000   0.000000  
NODE85           1850.380000 30.000000  0.000000   0.000000   0.000000  

[OUTFALLS]
;;Name           Elevation  Type       Stage Data       Gated    Route To        
;;-------------- ---------- ---------- ---------------- -------- ----------------
NODE74           1786.840000 FREE                        NO                       

[STORAGE]
;;Name           Elev.    MaxDepth   InitDepth  Shape      Curve Name/Params            N/A      Fevap    Psi      Ksat     IMD     
;;-------------- -------- ---------- ----------- ---------- ---------------------------- -------- --------          -------- --------
; de facto det NW of 11th St
DEFACTO_11TH     1851.800000 30.000000  0.000000   TABULAR    DE_FACTO_11TH                0.000000 0.000000
; de facto det N of 1804 and W of USH83
DEFACTO_1804_W_OF_USH83 1829.720000 30.000000  0.000000   TABULAR    DE_FACTO_1804                0.000000 0.000000
; de facto det N of 79th near private drives
DEFACTO_79TH_PRIVETE_DR 1859.800000 30.000000  0.000000   TABULAR    DE_FACTO_79TH_PRIVATE_DR     0.000000 0.000000
; de facto det N of 84th and W of Fennel
DEFACTO_84TH_FENNEL 1880.750000 30.000000  0.000000   TABULAR    DE_FACTO_N_OF_84TH_W_OF_FENNEL 0.000000 0.000000
; de facto det E of Fennel and N of 84th
DEFACTO_E_OF_FENNEL_N_OF_84TH 1882.550000 30.000000  0.000000   TABULAR    DE_FACTO_E_OF_FENNEL_N_OF_84TH 0.000000 0.000000
; de facto det E of Wash and N of 1804
DEFACTO_E_OF_WASH_N_OF_1804 1887.500000 30.000000  0.000000   TABULAR    DE_FACTO_E_OF_WASH_N_OF_1804 0.000000 0.000000
; de facto det NE corner of 84th and Ridgeland
DEFACTO_NE_84TH_RIDGELAND 1883.020000 30.000000  0.000000   TABULAR    DE_FACTO_NE_84TH_RIDGELAND   0.000000 0.000000
; de facto det NE of Sunflower Sage intersection
DEFACTO_NE_SNFLWR_SAGE 1908.540000 30.000000  0.000000   TABULAR    DE_FACTO_NE_SNFLWR_SAGE      0.000000 0.000000
; de facto det NW corner of 84th and Ridgeland
DEFACTO_NW_84TH_RIDGELAND 1887.600000 30.000000  0.000000   TABULAR    DE_FACTO_NW_84TH_RIDGELAND   0.000000 0.000000
; de facto det N of 79th and E of Private Dr
DEFACTO_N_OF_79TH_E_OF_PRIVDR 1863.440000 30.000000  0.000000   TABULAR    DE_FACTO_N_OF_79TH_E_OF_PRIVDR 0.000000 0.000000
; de facto det N of Sunflower and W of Caraway
DEFACTO_N_OF_SNFLWR_W_OF_CRWAY 1913.080000 30.000000  0.000000   TABULAR    DE_FACTO_N_OF_SNFLWR_W_OF_CRWAY 0.000000 0.000000
; de facto det N of Sunflower and W of Sage
DEFACTO_N_OF_SNFLWR_W_OF_SAGE 1907.620000 30.000000  0.000000   TABULAR    DE_FACTO_N_OF_SNFLWR_W_OF_SAGE 0.000000 0.000000
; de facto det W of Private Dr and N of 79th (cloest to 79th)
DEFACTO_PRIVATE_DR_N_OF_79TH_1 1861.200000 30.000000  0.000000   TABULAR    DE_FACTO_PRIVATE_DR_N_OF_79TH_1 0.000000 0.000000
; de facto det N of Private Dr and N of 79th (farther fro
DEFACTO_PRIVATE_DR_N_OF_79TH_2 1861.670000 30.000000  0.000000   TABULAR    DE_FACTO_PRIVATE_DR_N_OF_79TH_2 0.000000 0.000000
; New Junction
DEFACTO_PRIVATE_DR_S_OF_79TH 1858.310000 30.000000  0.000000   TABULAR    DE_FACTO_PRIVATE_DR_S_OF_79TH 0.000000 0.000000
; de facto det SW corner of 84th and Ridgeland
DEFACTO_SW_84TH_RIDGELAND 1887.900000 30.000000  0.000000   TABULAR    DE_FACTO_SW_84TH_RIDGELAND   0.000000 0.000000
; de facto det S of Ridgeland Lp and E of Wash
DEFACTO_S_OF_RDGLND_LP_E_OF_WASH 1905.390000 30.000000  0.000000   TABULAR    DE_FACTO_S_OF_RDGLND_LP      0.000000 0.000000
; de facto det E of USH83 and N of 1804 (lower area)
DEFACTO_USH83_N_OF_1804 1832.770000 30.000000  0.000000   TABULAR    DE_FACTO_USH83_N_OF_1804     0.000000 0.000000
; de facto det near USH 83 (upper larger area)
DEFACTO_USH83_UPPER 1834.000000 30.000000  0.000000   TABULAR    DE_FACTO_USH83_UPPER         0.000000 0.000000
; de facto det W of Driveway and N of Ridgeland Lp
DEFACTO_W_OF_DRIV_ON_RDGLND_LP 1900.120000 30.000000  0.000000   TABULAR    DE_FACTO_PRIVATE_DR_ON_RGDLND_LP 0.000000 0.000000
; de facto det W of USH83 and NE of 79th
DEFACTO_W_OF_USH83_NE_OF_79TH 1863.410000 30.000000  0.000000   TABULAR    DE_FACTO_W_OF_USH83_NE_OF_79TH 0.000000 0.000000
; de facto det W of USH83 and N of 11th
DEFACTO_W_OF_USH83_N_OF_11TH 1852.020000 30.000000  0.000000   TABULAR    DE_FACTO_W_OF_USH83_N_OF_11TH 0.000000 0.000000
; de facto det W of Wash and Ridgeland Lp
DEFACTO_W_OF_WASH_N_OF_RDGLND_LP 1904.650000 30.000000  0.000000   TABULAR    DE_FACTO_W_OF_WASH_RDGLND_LP 0.000000 0.000000
; de facto det W of Wash and S of 1804
DEFACTO_W_OF_WASH_S_OF_1804 1866.590000 30.000000  0.000000   TABULAR    DE_FACTO_W_OF_WASH_S_OF_1804 0.000000 0.000000
; East Property Line Det Basin in N Ridge Est
DET_BASIN_NRE_E_PROP_LINE 1873.730000 30.000000  0.000000   TABULAR    DETBASIN_NRE_E_PROP_LINE     0.000000 0.000000
; Inline Det Basin in N Ridge Est
DET_BASIN_NRE_INLINE 1866.410000 30.000000  0.000000   TABULAR    DETBASIN_NRE_INLINE          0.000000 0.000000
; Parkside Det Basin in N Ridge Est
DET_BASIN_NRE_N_PARKSIDE 1880.040000 30.000000  0.000000   TABULAR    DETBASIN_NRE_N_PARKSIDE      0.000000 0.000000
; Northwood Central Det Basin in N Ridge Est
DET_BASIN_NRE_W_NWOOD_CENT 1874.220000 30.000000  0.000000   TABULAR    DETBASIN_NRE_W_NWOOD_CENT    0.000000 0.000000
; Northwood North Det Basin in N Ridge Est
DET_BASIN_NRE_W_NWOOD_N 1902.230000 30.000000  0.000000   TABULAR    DETBASIN_NRE_W_NWOOD_N       0.000000 0.000000
; Northwood South Det Basin in N Ridge Est
DET_BASIN_NRE_W_NWOOD_S 1877.890000 30.000000  0.000000   TABULAR    DETBASIN_NRE_W_NWOOD_S       0.000000 0.000000
; Ridgeland North Det Basin in N Ridge Est
DET_BASIN_NRE_W_RIDGELAND_N 1885.490000 30.000000  0.000000   TABULAR    DETBASIN_NRE_W_RIDGELAND_N   0.000000 0.000000
; Ridgeland South Det Basin in N Ridge Est
DET_BASIN_NRE_W_RIDGELAND_S 1857.270000 30.000000  0.000000   TABULAR    DETBASIN_NRE_W_RIDGELAND_S   0.000000 0.000000

[CONDUITS]
;;Name           From Node        To Node          Length     Roughness  InOffset   OutOffset  InitFlow   MaxFlow   
;;-------------- ---------------- ---------------- ---------- ---------- ---------- ---------- ---------- ----------
; Culv under 11th Street
11TH_CULV        DEFACTO_11TH     NODE85           67.000000  0.024000   0.000000   0.000000   0.000000   0.000000  
; Culv2 under 11th Street
11TH_CULV2       DEFACTO_11TH     NODE85           67.000000  0.024000   0.130000   0.180000   0.000000   0.000000  
; Culv3 under 11th Street
11TH_CULV3       DEFACTO_11TH     NODE85           67.000000  0.024000   0.200000   0.440000   0.000000   0.000000  
1804_W_USH83_CULV DEFACTO_1804_W_OF_USH83 NODE70           125.000000 0.014000   0.460000   0.180000   0.000000   0.000000  
1804_W_USH83_CULV2 DEFACTO_1804_W_OF_USH83 NODE70           133.000000 0.014000   0.000000   0.300000   0.000000   0.000000  
1804_W_USH83_CULV3 DEFACTO_1804_W_OF_USH83 NODE70           135.000000 0.014000   0.090000   0.510000   0.000000   0.000000  
1804_W_USH83_CULV4 DEFACTO_1804_W_OF_USH83 NODE70           141.000000 0.014000   0.480000   0.000000   0.000000   0.000000  
; Culv under 1804 W of Wash
1804_W_WASH_CULV 1804_W_OF_WASH   JCT-104          58.000000  0.014000   0.000000   0.000000   0.000000   0.000000  
; Culv under 79th E of Private Drives
79TH_E_PRIVATE_DR_CULV DEFACTO_N_OF_79TH_E_OF_PRIVDR JCT-120          37.000000  0.014000   0.000000   0.000000   0.000000   0.000000  
; culv under 79th near private drives
79TH_NEAR_PRIV_DR_CULV DEFACTO_79TH_PRIVETE_DR NODE64           30.000000  0.024000   0.000000   0.000000   0.000000   0.000000  
; culv2 under 79th near private drives
79TH_NEAR_PRIV_DR_CULV2 DEFACTO_79TH_PRIVETE_DR NODE64           30.000000  0.024000   0.190000   0.550000   0.000000   0.000000  
; culv3 under 79th near private drives
79TH_NEAR_PRIV_DR_CULV3 DEFACTO_79TH_PRIVETE_DR NODE64           32.000000  0.024000   0.290000   0.560000   0.000000   0.000000  
; Culv under 79th W of driveways
79TH_W_DRIVEWAYS_CULV DEFACTO_PRIVATE_DR_N_OF_79TH_1 JCT-116          40.000000  0.014000   0.000000   0.000000   0.000000   0.000000  
; Culv under 84th E of Ridgeland
84TH_E_RIDGELAND_CULV DEFACTO_NE_84TH_RIDGELAND JCT-40           60.000000  0.024000   0.000000   0.000000   0.000000   0.000000  
; Culv under 84th W of Fennel
84TH_W_FENNEL_CULV DEFACTO_84TH_FENNEL NODE62           60.000000  0.024000   0.000000   0.000000   0.000000   0.000000  
; New Conduit
CDT-101          JCT-122          DEFACTO_NE_84TH_RIDGELAND 1745.000000 0.050000   0.000000   0.000000   0.000000   0.000000  
; New Conduit
CDT-103          JCT-134          JCT-136          193.000000 0.050000   0.000000   0.000000   0.000000   0.000000  
; New Conduit
CDT-105          JCT-132          JCT-136          1371.000000 0.050000   0.000000   0.000000   0.000000   0.000000  
; New Conduit
CDT-107          JCT-102          1804_W_OF_WASH   535.000000 0.050000   0.000000   0.000000   0.000000   0.000000  
; New Conduit
CDT-109          JCT-104          DEFACTO_W_OF_WASH_S_OF_1804 950.000000 0.050000   0.000000   0.000000   0.000000   0.000000  
; New Conduit