[TITLE]
;;Project Title/Notes
Inkster L-49 Sewer Separation
Existing Combined Sewer
Stantec Alternative 2
New Gravity Sewer and Regulator
November, 2008

[OPTIONS]
;;Option             Value
FLOW_UNITS           CFS
INFILTRATION         HORTON
FLOW_ROUTING         DYNWAVE
LINK_OFFSETS         DEPTH
MIN_SLOPE            0
ALLOW_PONDING        NO
SKIP_STEADY_STATE    NO

START_DATE           09/12/2008
START_TIME           00:00:00
REPORT_START_DATE    09/12/2008
REPORT_START_TIME    00:00:00
END_DATE             09/15/2008
END_TIME             00:00:00
SWEEP_START          01/01
SWEEP_END            12/31
DRY_DAYS             0
REPORT_STEP          00:05:00
WET_STEP             00:05:00
DRY_STEP             01:00:00
ROUTING_STEP         0:00:30 

INERTIAL_DAMPING     PARTIAL
NORMAL_FLOW_LIMITED  SLOPE
FORCE_MAIN_EQUATION  H-W
VARIABLE_STEP        0.50
LENGTHENING_STEP     10
MIN_SURFAREA         0
MAX_TRIALS           0
HEAD_TOLERANCE       0
SYS_FLOW_TOL         5
LAT_FLOW_TOL         5
MINIMUM_STEP         0.5
THREADS              1

[EVAPORATION]
;;Data Source    Parameters
;;-------------- ----------------
CONSTANT         0.0
DRY_ONLY         NO

[RAINGAGES]
;;Name           Format    Interval SCF      Source    
;;-------------- --------- ------ ------ ----------
RainGage         VOLUME    0:05     1.0      FILE       "C:\Temp\Final Model\Raingaugefinal.dat" STA01      IN   
AnalysisEvent    INTENSITY 1:00     1.0      TIMESERIES 25Yr24Hr        

[SUBCATCHMENTS]
;;Name           Rain Gage        Outlet           Area     %Imperv  Width    %Slope   CurbLen  SnowPack        
;;-------------- ---------------- ---------------- -------- -------- -------- -------- -------- ----------------
Westland         AnalysisEvent    601              100      10       3000     1        0                        
3                AnalysisEvent    1315             .5       37       442      1        0                        

[SUBAREAS]
;;Subcatchment   N-Imperv   N-Perv     S-Imperv   S-Perv     PctZero    RouteTo    PctRouted 
;;-------------- ---------- ---------- ---------- ---------- ---------- ---------- ----------
Westland         .01        0.1        0          0          0          OUTLET    
3                .01        0.1        .06        .06        25         OUTLET    

[INFILTRATION]
;;Subcatchment   MaxRate    MinRate    Decay      DryTime    MaxInfil  
;;-------------- ---------- ---------- ---------- ---------- ----------
Westland         3          .22        4          7          0         
3                3.67       .22        4.68       7          0         

[JUNCTIONS]
;;Name           Elevation  MaxDepth   InitDepth  SurDepth   Aponded   
;;-------------- ---------- ---------- ---------- ---------- ----------
1310             634.4      9.2        0          0          0         
1315             635.4      7.3        0          0          0         
1320             635.9      7.4        0          0          0         
1325             638.6      8.6        0          0          0         
1330             639        6.9        0          0          0         
1335             640.1      7.8        0          0          0         
1340             637.5      3.8        0          0          0         
1345             638.1      3.5        0          0          0         
1350             638.5      3.9        0          0          0         
1355             639.4      4.6        0          0          0         
1305             633.9      9.8        0          0          0         
1600             632.4      12.6       0          0          0         
13000            620.79     25.21      0          0          0         
1200             622.23     24.77      0          0          0         
800              626.25     21.3       0          0          0         
700              627.4      21.6       0          0          0         
400              630.9      19.1       0          0          0         
500              632.4      17.6       0          0          0         
600              633.7      16.3       0          0          0         
300              633.1      16.9       0          0          0         
1400             630.7      15.3       0          0          0         
1000             630.1      17.9       0          0          0         
900              630.6      17.4       0          0          0         
1100             630.3      17.7       0          0          0         
200              633.4      16.6       0          0          0         
31               625.42     14.8       0          0          0         
32               629.6      10.4       0          0          0         
33               627.6      12.16      0          0          0         
34               628.36     12.34      0          0          0         
35               629.16     12.44      0          0          0         
36               629.76     13.7       0          0          0         
37               631.98     10.9       0          0          0         
38               635.2      4.8        0          0          0         
39               637.3      12.7       0          0          0         
40               639.6      10.4       0          0          0         
41               633.9      6.1        0          0          0         
42               635.5      9.5        0          0          0         
43               638.1      6.9        0          0          0         
44               640.3      4.7        0          0          0         
45               637.2      7.8        0          0          0         
46               635.2      4.8        0          0          0         
47               632.1      7.9        0          0          0         
48               634.4      5.6        0          0          0         
49               629.1      10.9       0          0          0         
50               629.9      10.1       0          0          0         
51               631.6      8.4        0          0          0         
52               630.12     12.7       0          0          0         
53               631.5      8.5        0          0          0         
54               622.41     15.7       0          0          0         
55               622.31     15.8       0          0          0         
56               622.88     15.55      0          0          0         
57               626.3      14.7       0          0          0         
58               634        16         0          0          0         
59               618.6      26.4       0          0          0         
60               621.49     15.2       0          0          0         
62               625.74     17.26      0          0          0         
63               630.42     12.6       0          0          0         
64               626.33     16.67      0          0          0         
65               626.58     16.42      0          0          0         
66               621.45     14         0          0          0         
67               620.78     13.6       0          0          0         
68               620.54     13.2       0          0          0         

[OUTFALLS]
;;Name           Elevation  Type       Stage Data       Gated    Route To        
;;-------------- ---------- ---------- ---------------- -------- ----------------
1300             633.8      FREE                        NO                       
3001             620.06     FREE                        NO                       

[STORAGE]
;;Name           Elev.    MaxDepth   InitDepth  Shape      Curve Name/Params            N/A      Fevap    Psi      Ksat     IMD     
;;-------------- -------- ---------- ----------- ---------- ---------------------------- -------- --------          -------- --------
100              627.47   10         0          TABULAR    BurtonPSWetWell              0        0       
1500             618.5    26.5       0          TABULAR    AndoverPSWetWell             0        0       
601              623.6    26.2       2          TABULAR    Westlandstorage              0        0       

[CONDUITS]
;;Name           From Node        To Node          Length     Roughness  InOffset   OutOffset  InitFlow   MaxFlow   
;;-------------- ---------------- ---------------- ---------- ---------- ---------- ---------- ---------- ----------
1310             1310             1305             357        .013       0          0          0          0         
1315             1315             1310             140        .013       0          .4         0          0         
1320             1320             1315             180        .013       0          .1         0          0         
1325             1325             1320             512        .013       0          .4         0          0         
1330             1330             1325             140        .013       0          .1         0          0         
1335             1335             1330             252        .013       0          .1         0          0         
1340             1340             1320             420        .013       0          .6         0          0         
1345             1345             1340             91         .013       0          .2         0          0         
1350             1350             1345             168        .013       0          0          0          0         
1355             1355             1350             224        .013       0          .3         0          0         
1304             1305             1300             100        0.013      .8         0          0          0         
1305             1305             53               171        .013       0          2          0          0         
12               600              500              370        .013       0          0          0          0         
13               500              400              220        .013       0          0          0          0         
14               400              700              450        .013       0          2.1        0          0         
15               200              300              100        .013       0          .2         0          0         
16               300              400              330        .013       0          0          0          0         
17               1100             1000             170        .013       0          0          0          0         
18               900              1000             230        .013       0          0          0          0         
19               1000             800              510        .013       0          0          0          0         
20               700              800              120        .013       0          0          0          0         
21               800              1200             470        .013       0          2.67       0          0         
22               1200             13000            720        .013       2.67       .81        0          0         
23               1400             13000            210        .013       0          8.71       0          0         
24               13000            59               100        .013       .81        3          0          0         
25               1600             51               456        .013       0          0          0          0         
27               1200             13000            860        .013       0          0          0          0         
28               13000            59               135        .013       0          2.13       0          0         
29               40               39               776        .013       0          0          0          0         
30               39               37               1231       .013       0          0          0          0         
31               37               36               190        .013       0          0          0          0         
32               38               37               758        .013       0          0          0          0         
33               44               43               495        .013       0          0          0          0         
34               43               42               270        .013       0          0          0          0         
35               45               42               726        .013       0          0          0          0         
36               46               41               575        .013       0          0          0          0         
37               42               41               350        .013       0          0          0          0         
39               36               35               310        .013       0          0          0          0         
40               35               34               200        .013       0          0          0          0         
41               34               33               386        .013       0          0          0          0         
42               33               31               461        .013       0          0          0          0         
44               54               60               315        .013       0          0          0          0         
45               32               57               455        .013       0          .1         0          0         
46               48               47               669        .013       0          0          0          0         
47               47               35               748        .013       0          2          0          0         
48               49               57               925        .013       0          .2         0          0         
49               50               49               286        .013       0          0          0          0         
50               51               50               307        .013       0          0          0          0         
51               41               63               171        .013       0          .68        0          0         
52               52               36               160        .013       0          0          0          0         
53               53               52               590        .013       0          0          0          0         
54               31               56               333        0.013      0          0          0          0         
55               56               55               111        0.013      0          0          0          0         
56               55               54               222        0.013      0          .1         0          0         
57               57               31               20         0.013      0          0          0          0         
58               58               1200             600        0.013      0          0          0          0         
59               59               1500             30         0.013      0          0          0          0         
65               100              800              1500       0.013      0          0          0          0         
68               62               31               650        0.013      0          0          0          0         
70               64               62               1182       0.013      0          .5         0          0         
71               52               63               141        0.013      0          0          0          0         
72               65               64               144        0.013      0          0          0          0         
73               63               65               65         0.013      .3         0          0          0         
74               60               66               105        0.013      0          0          0          0         
75               66               67               350        0.013      0          0          0          0         
76               68               3001             144        0.013      0          0          0          0         

[PUMPS]
;;Name           From Node        To Node          Pump Curve       Status   Sartup Shutoff 
;;-------------- ---------------- ---------------- ---------------- ------ -------- --------
4                601              58               Westland         ON       0        0       
5                1500             1600             AndoverPS        ON       0        0       

[ORIFICES]
;;Name           From Node        To Node          Type         Offset     Qcoeff     Gated    CloseTime 
;;-------------- ---------------- ---------------- ------------ ---------- ---------- -------- ----------
64               67               68               SIDE         0          0.65       NO       0         

[XSECTIONS]
;;Link           Shape        Geom1            Geom2      Geom3      Geom4      Barrels    Culvert   
;;-------------- ------------ ---------------- ---------- ---------- ---------- ---------- ----------
1310             CIRCULAR     2.5              0          0          0          1                    
1315             CIRCULAR     2.5              0          0          0          1                    
1320             CIRCULAR     2.5              0          0          0          1                    
1325             CIRCULAR     1.5              0          0          0          1                    
1330             CIRCULAR     1.25             0          0          0          1                    
1335             CIRCULAR     1.25             0          0          0          1                    
1340             CIRCULAR     2.0              0          0          0          1                    
1345             CIRCULAR     2.0              0          0          0          1                    
1350             CIRCULAR     1.75             0          0          0          1                    
1355             CIRCULAR     1.5              0          0          0          1                    
1304             CIRCULAR     2.5              0          0          0          1                    
1305             CIRCULAR     1.25             0          0          0          1                    
12               CIRCULAR     .8333            0          0          0          1                    
13               CIRCULAR     .8333            0          0          0          1                    
14               CIRCULAR     1                0          0          0          1                    
15               CIRCULAR     .833             0          0          0          1                    
16               CIRCULAR     .833             0          0          0          1                    
17               CIRCULAR     .833             0          0          0          1                    
18               CIRCULAR     .833             0          0          0          1                    
19               CIRCULAR     .833             0          0          0          1                    
20               CIRCULAR     1                0          0          0          1                    
21               CIRCULAR     .833             0          0          0          1                    
22               CIRCULAR     .8333            0          0          0          1                    
23               CIRCULAR     .833             0          0          0          1                    
24               CIRCULAR     .833             0          0          0          1                    
25               CIRCULAR     1                0          0          0          1                    
27               CIRCULAR     1.5              0          0          0          1                    
28               CIRCULAR     1.5              0          0          0          1                    
29               CIRCULAR     .833             0          0          0          1                    
30               CIRCULAR     .833             0          0          0          1                    
31               CIRCULAR     .833             0          0          0          1                    
32               CIRCULAR     .833             0          0          0          1                    
33               CIRCULAR     .833             0          0          0          1                    
34               CIRCULAR     .833             0          0          0          1                    
35               CIRCULAR     .833             0          0          0          1                    
36               CIRCULAR     .833             0          0          0          1                    
37               CIRCULAR     .833             0          0          0          1                    
39               CIRCULAR     1                0          0          0          1                    
40               CIRCULAR     1                0          0          0          1                    
41               CIRCULAR     1                0          0          0          1                    
42               CIRCULAR     1                0          0          0          1                    
44               CIRCULAR     2                0          0          0          1                    
45               CIRCULAR     .833             0          0          0          1                    
46               CIRCULAR     .833             0          0          0          1                    
47               CIRCULAR     1                0          0          0          1                    
48               CIRCULAR     1                0          0          0          1                    
49               CIRCULAR     1                0          0          0          1                    
50               CIRCULAR     1                0          0          0          1                    
51               CIRCULAR     .833             0          0          0          1                    
52               CIRCULAR     1                0          0          0          1                    
53               CIRCULAR     1                0          0          0          1                    
54               CIRCULAR     2                0          0          0          1                    
55               CIRCULAR     2                0          0          0          1                    
56               CIRCULAR     2                0          0          0          1                    
57               CIRCULAR     1                0          0          0          1                    
58               CIRCULAR     1                0          0          0          1                    
59               CIRCULAR     1.5              0          0          0          1                    
65               CIRCULAR     2                0          0          0          1                    
68               CIRCULAR     4                0          0          0          1                    
70               CIRCULAR     4                0          0          0          1                    
71               CIRCULAR     2                0          0          0          1                    
72               CIRCULAR     3.5              0          0          0          1                    
73               CIRCULAR     2                0          0          0          1                    
74               CIRCULAR     2                0          0          0          1                    
75               CIRCULAR     2                0          0          0          1                    
76               CIRCULAR     2                0          0          0          1                    
64               CIRCULAR     .63              0          0          0

[LOSSES]
;;Link           Kentry     Kexit      Kavg       Flap Gate  Seepage   
;;-------------- ---------- ---------- ---------- ---------- ----------
44               .5         1          0          NO         0         

[DWF]
;;Node           Constituent      Baseline   Patterns  
;;-------------- ---------------- ---------- ----------
1315             FLOW             .002      
1320             FLOW             .010      
1330             FLOW             .006      
1335             FLOW             .011      
1340             FLOW             .003      
1345             FLOW             .012      
1355             FLOW             .006      
1200             FLOW             .02       
500              FLOW             .007      
600              FLOW             .014      
300              FLOW             .002      
1400             FLOW             .006      
1000             FLOW             .006      
1100             FLOW             .003      
200              FLOW             .022      
31               FLOW             .0029     
32               FLOW             .016      
33               FLOW             .0064     
34               FLOW             .0068     
38               FLOW             .0096     
39               FLOW             .0084     
40               FLOW             .0096     
44               FLOW             .0084     
45               FLOW             .0125     
46               FLOW             .0129     
48               FLOW             .0175     
49               FLOW             .0094     
50               FLOW             .0135     
51               FLOW             .0095     
53               FLOW             .017      
100              FLOW             .025      

[HYDROGRAPHS]
;;Hydrograph     Rain Gage/Month  Response R        T        K        Dmax     Drecov   Dinit   
;;-------------- ---------------- -------- -------- -------- -------- -------- -------- --------
RDII1            AnalysisEvent   
RDII1            All              Short    0        .5       1        0        0        0       
RDII1            All              Medium   0        1.5      2        0        0        0       
RDII1            All              Long     0        1.5      2        0        0        0       
RDII1backup      AnalysisEvent   
RDII1backup      All              Short    .0416    .75      1.33     0        0        0       
RDII1backup      All              Medium   0        .75      1.33     0        0        0       
RDII1backup      All              Long     .0124    1.25     3.2      0        0        0       
L-49Area         AnalysisEvent   
L-49Area         All              Short    .01      .75      1.33     0        0        0       
L-49Area         All              Medium   .005     .75      1.33     0        0        0       
L-49Area         All              Long     .01      1.25     3.2      0        0        0       
RDIIwestside     AnalysisEvent   
RDIIwestside     All              Short    .035     .5       1        0        0        0       
RDIIwestside     All              Medium   .01      1.5      2        0        0        0       
RDIIwestside     All              Long     0        1.5      2        0        0        0       
Westland         AnalysisEvent   
Westland         All              Short    1        .75      2        0        0        0       
Westland         All              Medium   0        1        2        0        0        0       
Westland         All              Long     0        5        2        0        0        0       
Andover          AnalysisEvent   
Andover          All              Short    .05      7        .05      0        0        0       
Andover          All              Medium   0        0        0        0        0        0       
Andover          All              Long     0        0        0        0        0        0       
BurtonPS         AnalysisEvent   


[RDII]
;;Node           Unit Hydrograph  Sewer Area
;;-------------- ---------------- ----------
1315             L-49Area         1.01      
1320             L-49Area         4.31      
1330             L-49Area         2.59      
1335             L-49Area         4.85      
1340             L-49Area         1.37      
1355             L-49Area         7.52      
1200             Andover          7.79      
500              Andover          4.04      
600              Andover          8.26      
300              Andover          1.07      
1400             Andover          3.42      
1000             Andover          3.23      
900              Andover          0.22      
1100             Andover          1.62      
31               RDII1            1.7       
32               RDII1            9.2       
33               RDIIwestside     3.7       
34               RDIIwestside     3.9       
38               RDIIwestside     5.5       
39               RDIIwestside     4.8       
40               RDIIwestside     5.5       
44               RDIIwestside     4.8       
45               RDIIwestside     7.2       
46               RDIIwestside     7.3       
48               RDIIwestside     10        
49               RDII1            5.3       
50               RDII1            7.7       
51               RDII1            5.4       
53               RDIIwestside     9.7       
100              BurtonPS         12.3      

[CURVES]
;;Name           Type       X-Value    Y-Value   
;;-------------- ---------- ---------- ----------
AndoverPS        Pump2      0          0         
AndoverPS                   .5         .949      
AndoverPS                   .51        .949      
AndoverPS                   10         .949      
AndoverPS                   10.1       1.898     
AndoverPS                   26         1.898     
;
BurtonPS         Pump4      0          0         
BurtonPS                    .5         0         
BurtonPS                    3          0         
BurtonPS                    3.01       .3        
BurtonPS                    4          .3        
BurtonPS                    4.01       .6        