[TITLE]
;;Project Title/Notes
Scenario Run :  EX_100YR

[OPTIONS]
;;Option             Value
FLOW_UNITS           CFS
INFILTRATION         HORTON
FLOW_ROUTING         DYNWAVE
LINK_OFFSETS         DEPTH
MIN_SLOPE            0
ALLOW_PONDING        NO
SKIP_STEADY_STATE    NO

IGNORE_QUALITY       YES
START_DATE           01/01/2002
START_TIME           00:00:00
REPORT_START_DATE    01/01/2002
REPORT_START_TIME    00:00:00
END_DATE             01/01/2002
END_TIME             08:00:00
SWEEP_START          01/01
SWEEP_END            12/31
DRY_DAYS             12.000000
REPORT_STEP          00:05:00
WET_STEP             00:05:00
DRY_STEP             01:00:00
ROUTING_STEP         0:00:05 

INERTIAL_DAMPING     NONE
NORMAL_FLOW_LIMITED  BOTH
FORCE_MAIN_EQUATION  H-W
VARIABLE_STEP        0.75
LENGTHENING_STEP     5
MIN_SURFAREA         0
MAX_TRIALS           0
HEAD_TOLERANCE       0
SYS_FLOW_TOL         5
LAT_FLOW_TOL         5
MINIMUM_STEP         0.5
THREADS              1

[EVAPORATION]
;;Data Source    Parameters
;;-------------- ----------------
CONSTANT         0.0
DRY_ONLY         NO

[RAINGAGES]
;;Name           Format    Interval SCF      Source    
;;-------------- --------- ------ ------ ----------
; New Raingage
1                VOLUME    0.083333 0.000000 TIMESERIES 100YR           

[SUBCATCHMENTS]
;;Name           Rain Gage        Outlet           Area     %Imperv  Width    %Slope   CurbLen  SnowPack        
;;-------------- ---------------- ---------------- -------- -------- -------- -------- -------- ----------------
0                1                JCT-622          1.856163 54.954065 807.559173 0.134073 0.000000                 
1                1                JCT-620          0.851731 70.179064 574.542570 3.348137 0.000000                 
10               1                JCT-426          0.593331 75.035411 671.118349 2.626869 0.000000                 
100              1                JCT-616          1.926593 80.018034 809.771424 2.079445 0.000000                 
101              1                JCT-250          2.222724 82.748989 948.285333 3.271946 0.000000                 
102              1                STOR-10          0.606394 94.988305 414.265071 1.023797 0.000000                 
103              1                JCT-298          11.679657 75.000000 1671.098925 2.510530 0.000000                 
104              1                JCT-296          5.733400 87.763324 1312.104824 0.983243 0.000000                 
105              1                JCT-494          4.513934 87.222302 1292.313659 0.587433 0.000000                 
106              1                JCT-610          1.022749 95.000000 573.376616 1.140147 0.000000                 
107              1                JCT-498          1.028875 95.000000 575.074853 0.791711 0.000000                 
108              1                JCT-496          0.580783 95.000000 414.110651 2.659885 0.000000                 
109              1                JCT-612          0.606262 95.000000 425.539600 1.170736 0.000000                 
11               1                JCT-422          0.427517 65.638749 472.347239 1.930583 0.000000                 
110              1                JCT-500          0.907157 95.000000 520.235646 0.042098 0.000000                 
111              1                JCT-614          1.270352 95.000000 810.830430 1.671701 0.000000                 
112              1                JCT-238          0.591528 95.000000 775.947385 3.592314 0.000000                 
113              1                JCT-218          2.834238 86.655484 1095.362724 3.731598 0.000000                 
114              1                JCT-536          1.577201 95.000000 847.630388 2.907969 0.000000                 
115              1                JCT-538          0.660577 95.000000 652.230045 2.450661 0.000000                 
116              1                JCT-540          0.373978 95.000000 421.713536 2.163000 0.000000                 
117              1                JCT-542          0.267873 95.000000 332.132084 2.736825 0.000000                 
118              1                JCT-544          0.165369 95.000000 235.571233 0.011186 0.000000                 
119              1                JCT-388          0.408377 95.000000 364.273995 0.764705 0.000000                 
12               1                JCT-382          1.272558 63.205106 836.228874 1.736783 0.000000                 
120              1                JCT-240          1.186130 95.000000 695.467375 2.828995 0.000000                 
121              1                JCT-220          2.726538 90.209025 1028.484982 1.383662 0.000000                 
122              1                JCT-562          4.850419 84.466476 1219.316029 1.762783 0.000000                 
123              1                JCT-558          0.503780 95.000000 472.191572 0.738425 0.000000                 
124              1                JCT-560          1.685568 95.000000 716.360558 1.708106 0.000000                 
125              1                JCT-556          0.820576 95.000000 534.954468 1.069948 0.000000                 
126              1                JCT-554          1.272098 94.991718 883.431204 3.471303 0.000000                 
127              1                JCT-552          2.165918 81.701004 791.974051 1.146264 0.000000                 
128              1                JCT-462          1.175743 62.038440 635.649093 1.062410 0.000000                 
129              1                JCT-274          5.071323 58.714898 1398.595674 3.350547 0.000000                 
13               1                JCT-632          0.774473 55.412952 633.937889 2.108266 0.000000                 
130              1                JCT-412          2.621541 49.406659 1082.413352 2.927471 0.000000                 
131              1                JCT-504          2.939252 50.264076 1102.752413 2.142052 0.000000                 
14               1                JCT-380          0.511293 51.714331 547.683227 0.006281 0.000000                 
15               1                JCT-442          0.690593 78.956958 611.674908 2.887484 0.000000                 
16               1                JCT-442          1.519447 70.496680 708.693111 3.701555 0.000000                 
17               1                JCT-630          0.875675 81.287162 638.102465 0.693406 0.000000                 
18               1                JCT-444          1.392559 78.256225 925.199183 1.760769 0.000000                 
19               1                JCT-628          0.555148 81.950320 461.648212 3.472594 0.000000                 
20               1                JCT-306          0.830896 83.862831 528.276842 3.596260 0.000000                 
21               1                JCT-60           0.406966 77.745182 376.317562 0.970909 0.000000                 
22               1                JCT-468          0.450751 83.842892 753.292314 2.157967 0.000000                 
23               1                JCT-446          0.221884 50.092130 274.560705 2.212539 0.000000                 
24               1                JCT-312          0.536554 41.837571 429.473123 0.556154 0.000000                 
25               1                JCT-20           4.872110 76.876897 1196.920380 2.361741 0.000000                 
26               1                JCT-122          1.228737 27.311541 681.702450 2.504212 0.000000                 
27               1                JCT-40           0.444854 87.236500 722.046496 0.727499 0.000000                 
28               1                JCT-180          3.316638 76.691102 1226.980525 0.039553 0.000000                 
29               1                JCT-178          0.242124 66.491345 316.645910 0.908019 0.000000                 
3                1                JCT-624          1.008956 76.808379 592.475977 1.105943 0.000000                 
30               1                JCT-316          1.017713 73.265729 560.316233 1.185370 0.000000                 
31               1                JCT-324          1.583163 75.000000 858.014586 1.348285 0.000000                 
32               1                JCT-326          2.413022 68.933439 1218.973720 1.175349 0.000000                 
33               1                JCT-50           3.036935 92.113915 1072.255951 1.574674 0.000000                 
34               1                JCT-526          1.007257 88.489797 561.788824 1.659527 0.000000                 
35               1                JCT-18           0.393162 81.970877 587.298999 3.238000 0.000000                 
37               1                JCT-590          0.396208 77.096182 405.869945 3.344088 0.000000                 
38               1                JCT-586          1.371294 82.454135 665.435350 2.274331 0.000000                 
39               1                JCT-580          0.490799 72.516358 464.684845 2.327779 0.000000                 
4                1                JCT-438          1.039988 64.684794 812.931598 0.405921 0.000000                 
40               1                JCT-524          2.111554 52.992552 903.145831 0.196022 0.000000                 
41               1                JCT-522          0.659037 63.266437 608.766374 1.761252 0.000000                 
42               1                JCT-132          2.520844 63.842868 976.135039 0.150714 0.000000                 
43               1                JCT-530          0.728414 57.369720 699.776386 1.699832 0.000000                 
44               1                JCT-532          2.651503 56.978139 1069.459628 2.618661 0.000000                 
45               1                JCT-434          1.167008 58.330423 721.751674 1.124977 0.000000                 
46               1                JCT-528          1.726843 75.363807 771.404473 1.955843 0.000000                 
47               1                JCT-520          0.674645 77.300361 625.844954 3.706137 0.000000                 
48               1                JCT-258          0.203290 95.000022 325.275215 2.110779 0.000000                 
49               1                JCT-456          1.929614 72.449229 869.224693 2.137003 0.000000                 
5                1                JCT-436          0.769545 55.994438 1088.902116 1.878951 0.000000                 
50               1                JCT-414          1.236519 73.342274 708.899658 2.868519 0.000000                 
51               1                JCT-320          2.191440 75.002636 795.767140 2.837751 0.000000                 
52               1                JCT-452          0.599039 67.687481 548.782272 3.849532 0.000000                 
53               1                JCT-450          0.507002 77.921496 416.999833 3.167869 0.000000                 
54               1                JCT-584          0.296151 80.483417 358.393784 1.070275 0.000000                 
55               1                JCT-272          1.428048 77.261704 973.324659 0.214297 0.000000                 
56               1                JCT-598          2.173777 77.041117 897.699842 3.592695 0.000000                 
57               1                JCT-534          0.926008 57.483302 672.549141 2.019724 0.000000                 
58               1                JCT-418          2.650572 57.891968 916.309145 3.453127 0.000000                 
59               1                JCT-416          0.763395 69.668772 598.443280 1.150989 0.000000                 
6                1                JCT-432          3.468105 31.956356 1213.057291 3.376074 0.000000                 
60               1                JCT-420          0.675097 63.878439 532.447633 3.534118 0.000000                 
61               1                JCT-410          0.937344 74.861634 683.193455 1.780506 0.000000                 
62               1                JCT-400          2.449474 63.941108 914.617120 1.245296 0.000000                 
63               1                JCT-402          0.891770 62.523625 660.160137 1.802168 0.000000                 
64               1                JCT-404          1.475072 17.588813 671.384379 1.148878 0.000000                 
65               1                JCT-408          2.534199 69.439042 1012.673549 1.065933 0.000000                 
66               1                JCT-634          1.463325 22.004167 759.704061 1.696821 0.000000                 
67               1                JCT-408          2.534199 69.439042 1012.673549 1.707742 0.000000                 
68               1                JCT-406          1.037019 49.838201 749.018698 2.412498 0.000000                 
69               1                JCT-266          0.912083 51.388341 656.868558 3.323640 0.000000                 
7                1                JCT-428          0.557858 44.917786 546.425583 1.280742 0.000000                 
70               1                JCT-458          0.490789 89.529114 418.237798 0.697276 0.000000                 
71               1                JCT-460          1.389737 82.741937 1191.430829 2.831079 0.000000                 
72               1                JCT-514          2.861012 18.235330 1004.287494 0.288100 0.000000                 
73               1                JCT-134          1.631880 16.574465 703.087773 3.684748 0.000000                 
74               1                JCT-568          0.586519 77.261248 514.339485 1.327009 0.000000                 
75               1                JCT-502          2.206075 76.834915 890.061289 0.970331 0.000000                 
76               1                JCT-516          0.697612 54.258135 638.079535 2.831759 0.000000                 
77               1                JCT-570          0.748090 47.901435 554.688111 3.326229 0.000000                 
78               1                JCT-288          0.644197 92.364772 490.597279 0.258723 0.000000                 
79               1                JCT-508          2.481465 90.613401 931.356348 2.097484 0.000000                 
8                1                JCT-430          0.276023 59.717180 356.821532 1.947466 0.000000                 
80               1                JCT-506          0.621497 95.000009 584.582237 1.549927 0.000000                 
81               1                JCT-510          0.277382 94.999988 372.848937 0.450039 0.000000                 
82               1                JCT-464          0.557302 95.000004 617.837970 3.102919 0.000000                 
83               1                JCT-512          3.154528 95.000003 1046.472253 2.948060 0.000000                 
84               1                JCT-564          0.417537 94.994124 645.196009 2.897594 0.000000                 
86               1                JCT-490          1.506558 76.918634 754.400568 2.223156 0.000000                 
87               1                JCT-470          1.478928 95.000000 1000.986548 2.218946 0.000000                 
88               1                JCT-294          1.341387 95.000000 889.246548 1.735584 0.000000                 
89               1                JCT-472          0.588206 95.000000 452.365390 2.258333 0.000000                 
9                1                JCT-424          2.379347 51.911408 902.827532 0.242090 0.000000                 
90               1                JCT-474          1.244298 95.000000 650.336330 0.758970 0.000000                 
91               1                JCT-476          0.508821 95.000000 388.621010 3.370795 0.000000                 
92               1                JCT-478          0.116779 95.000000 250.080975 2.559893 0.000000                 
93               1                JCT-480          0.503233 95.000000 386.688191 2.066696 0.000000                 
94               1                JCT-608          0.613016 95.000000 425.467724 1.087830 0.000000                 
95               1                JCT-482          0.840711 95.000000 506.590496 3.136451 0.000000                 
96               1                JCT-486          2.852447 95.000000 1232.727059 0.056549 0.000000                 
97               1                JCT-212          1.119687 92.991674 891.468728 0.936406 0.000000                 
98               1                JCT-606          2.383549 95.000000 973.753387 2.105974 0.000000                 
99               1                JCT-492          15.642660 77.404300 2714.802391 3.736146 0.000000                 
; New Subcatchment
SUB-472          1                JCT-174          1.282557 77.960067 793.033551 3.880325 0.000000                 
; New Subcatchment
SUB-474          1                JCT-440          0.878219 66.616472 640.060268 2.637373 0.000000                 
; New Subcatchment
SUB-478          1                JCT-466          1.496141 78.460981 836.411521 2.722782 0.000000                 
; New Subcatchment
SUB-480          1                JCT-518          1.344261 78.257352 1298.660000 2.954000 0.000000                 

[SUBAREAS]
;;Subcatchment   N-Imperv   N-Perv     S-Imperv   S-Perv     PctZero    RouteTo    PctRouted 
;;-------------- ---------- ---------- ---------- ---------- ---------- ---------- ----------
0                0.020000   0.030000   0.050000   0.200000   20.000000  OUTLET    
1                0.020000   0.030000   0.050000   0.200000   20.000000  OUTLET    
10               0.020000   0.030000   0.050000   0.200000   20.000000  OUTLET    
100              0.020000   0.030000   0.050000   0.200000   20.000000  OUTLET    
101              0.020000   0.030000   0.050000   0.200000   20.000000  OUTLET    
102              0.020000   0.030000   0.050000   0.200000   20.000000  OUTLET    
103              0.020000   0.030000   0.050000   0.200000   20.000000  OUTLET    
104              0.020000   0.030000   0.050000   0.200000   20.000000  OUTLET    
105              0.020000   0.030000   0.050000   0.200000   20.000000  OUTLET    
106              0.020000   0.030000   0.050000   0.200000   20.000000  OUTLET    
107              0.020000   0.030000   0.050000   0.200000   20.000000  OUTLET    
108              0.020000   0.030000   0.050000   0.200000   20.000000  OUTLET    
109              0.020000   0.030000   0.050000   0.200000   20.000000  OUTLET    
11               0.020000   0.030000   0.050000   0.200000   20.000000  OUTLET    
110              0.020000   0.030000   0.050000   0.200000   20.000000  OUTLET    
111              0.020000   0.030000   0.050000   0.200000   20.000000  OUTLET    
112              0.020000   0.030000   0.050000   0.200000   20.000000  OUTLET    
113              0.020000   0.030000   0.050000   0.200000   20.000000  OUTLET    
114              0.020000   0.030000   0.050000   0.200000   20.000000  OUTLET    
115              0.020000   0.030000   0.050000   0.200000   20.000000  OUTLET    
116              0.020000   0.030000   0.050000   0.200000   20.000000  OUTLET    
117              0.020000   0.030000   0.050000   0.200000   20.000000  OUTLET    
118              0.020000   0.030000   0.050000   0.200000   20.000000  OUTLET    
119              0.020000   0.030000   0.050000   0.200000   20.000000  OUTLET    
12               0.020000   0.030000   0.050000   0.200000   20.000000  OUTLET    
120              0.020000   0.030000   0.050000   0.200000   20.000000  OUTLET    
121              0.020000   0.030000   0.050000   0.200000   20.000000  OUTLET    
122              0.020000   0.030000   0.050000   0.200000   20.000000  OUTLET    
123              0.020000   0.030000   0.050000   0.200000   20.000000  OUTLET    
124              0.020000   0.030000   0.050000   0.200000   20.000000  OUTLET    
125              0.020000   0.030000   0.050000   0.200000   20.000000  OUTLET    
126              0.020000   0.030000   0.050000   0.200000   20.000000  OUTLET    
127              0.020000   0.030000   0.050000   0.200000   20.000000  OUTLET    
128              0.020000   0.030000   0.050000   0.200000   20.000000  OUTLET    
129              0.020000   0.030000   0.050000   0.200000   20.000000  OUTLET    
13               0.020000   0.030000   0.050000   0.200000   20.000000  OUTLET    
130              0.020000   0.030000   0.050000   0.200000   20.000000  OUTLET    
131              0.020000   0.030000   0.050000   0.200000   20.000000  OUTLET    
14               0.020000   0.030000   0.050000   0.200000   20.000000  OUTLET    
15               0.020000   0.030000   0.050000   0.200000   20.000000  OUTLET    
16               0.020000   0.030000   0.050000   0.200000   20.000000  OUTLET    
17               0.020000   0.030000   0.050000   0.200000   20.000000  OUTLET    
18               0.020000   0.030000   0.050000   0.200000   20.000000  OUTLET    
19               0.020000   0.030000   0.050000   0.200000   20.000000  OUTLET    
20               0.020000   0.030000   0.050000   0.200000   20.000000  OUTLET    
21               0.020000   0.030000   0.050000   0.200000   20.000000  OUTLET    
22               0.020000   0.030000   0.050000   0.200000   20.000000  OUTLET    
23               0.020000   0.030000   0.050000   0.200000   20.000000  OUTLET    
24               0.020000   0.030000   0.050000   0.200000   20.000000  OUTLET    
25               0.020000   0.030000   0.050000   0.200000   20.000000  OUTLET    
26               0.020000   0.030000   0.050000   0.200000   20.000000  OUTLET    
27               0.020000   0.030000   0.050000   0.200000   20.000000  OUTLET    
28               0.020000   0.030000   0.050000   0.200000   20.000000  OUTLET    
29               0.020000   0.030000   0.050000   0.200000   20.000000  OUTLET    
3                0.020000   0.030000   0.050000   0.200000   20.000000  OUTLET    
30               0.020000   0.030000   0.050000   0.200000   20.000000  OUTLET    
31               0.020000   0.030000   0.050000   0.200000   20.000000  OUTLET    
32               0.020000   0.030000   0.050000   0.200000   20.000000  OUTLET    
33               0.020000   0.030000   0.050000   0.200000   20.000000  OUTLET    
34               0.020000   0.030000   0.050000   0.200000   20.000000  OUTLET    
35               0.020000   0.030000   0.050000   0.200000   20.000000  OUTLET    
37               0.020000   0.030000   0.050000   0.200000   20.000000  OUTLET    
38               0.020000   0.030000   0.050000   0.200000   20.000000  OUTLET    
39               0.020000   0.030000   0.050000   0.200000   20.000000  OUTLET    
4                0.020000   0.030000   0.050000   0.200000   20.000000  OUTLET    
40               0.020000   0.030000   0.050000   0.200000   20.000000  OUTLET    
41               0.020000   0.030000   0.050000   0.200000   20.000000  OUTLET    
42               0.020000   0.030000   0.050000   0.200000   20.000000  OUTLET    
43               0.020000   0.030000   0.050000   0.200000   20.000000  OUTLET    
44               0.020000   0.030000   0.050000   0.200000   20.000000  OUTLET    
45               0.020000   0.030000   0.050000   0.200000   20.000000  OUTLET    
46               0.020000   0.030000   0.050000   0.200000   20.000000  OUTLET    
47               0.020000   0.030000   0.050000   0.200000   20.000000  OUTLET    
48               0.020000   0.030000   0.050000   0.200000   20.000000  OUTLET    
49               0.020000   0.030000   0.050000   0.200000   20.000000  OUTLET    
5                0.020000   0.030000   0.050000   0.200000   20.000000  OUTLET    
50               0.020000   0.030000   0.050000   0.200000   20.000000  OUTLET    
51               0.020000   0.030000   0.050000   0.200000   20.000000  OUTLET    
52               0.020000   0.030000   0.050000   0.200000   20.000000  OUTLET    
53               0.020000   0.030000   0.050000   0.200000   20.000000  OUTLET    
54               0.020000   0.030000   0.050000   0.200000   20.000000  OUTLET    
55               0.020000   0.030000   0.050000   0.200000   20.000000  OUTLET    
56               0.020000   0.030000   0.050000   0.200000   20.000000  OUTLET    
57               0.020000   0.030000   0.050000   0.200000   20.000000  OUTLET    
58               0.020000   0.030000   0.050000   0.200000   20.000000  OUTLET    
59               0.020000   0.030000   0.050000   0.200000   20.000000  OUTLET    
6                0.020000   0.030000   0.050000   0.200000   20.000000  OUTLET    
60               0.020000   0.030000   0.050000   0.200000   20.000000  OUTLET    
61               0.020000   0.030000   0.050000   0.200000   20.000000  OUTLET    
62               0.020000   0.030000   0.050000   0.200000   20.000000  OUTLET    
63               0.020000   0.030000   0.050000   0.200000   20.000000  OUTLET    
64               0.020000   0.030000   0.050000   0.200000   20.000000  OUTLET    
65               0.020000   0.030000   0.050000   0.200000   20.000000  OUTLET    
66               0.020000   0.030000   0.050000   0.200000   20.000000  OUTLET    
67               0.020000   0.030000   0.050000   0.200000   20.000000  OUTLET    
68               0.020000   0.030000   0.050000   0.200000   20.000000  OUTLET    
69               0.020000   0.030000   0.050000   0.200000   20.000000  OUTLET    
7                0.020000   0.030000   0.050000   0.200000   20.000000  OUTLET    
70               0.020000   0.030000   0.050000   0.200000   20.000000  OUTLET    
71               0.020000   0.030000   0.050000   0.200000   20.000000  OUTLET    
72               0.020000   0.030000   0.050000   0.200000   20.000000  OUTLET    
73               0.020000   0.030000   0.050000   0.200000   20.000000  OUTLET    
74               0.020000   0.030000   0.050000   0.200000   20.000000  OUTLET    
75               0.020000   0.030000   0.050000   0.200000   20.000000  OUTLET    
76               0.020000   0.030000   0.050000   0.200000   20.000000  OUTLET    
77               0.020000   0.030000   0.050000   0.200000   20.000000  OUTLET    
78               0.020000   0.030000   0.050000   0.200000   20.000000  OUTLET    
79               0.020000   0.030000   0.050000   0.200000   20.000000  OUTLET    
8                0.020000   0.030000   0.050000   0.200000   20.000000  OUTLET    
80               0.020000   0.030000   0.050000   0.200000   20.000000  OUTLET    
81               0.020000   0.030000   0.050000   0.200000   20.000000  OUTLET    
82               0.020000   0.030000   0.050000   0.200000   20.000000  OUTLET    
83               0.020000   0.030000   0.050000   0.200000   20.000000  OUTLET    
84               0.020000   0.030000   0.050000   0.200000   20.000000  OUTLET    
86               0.020000   0.030000   0.050000   0.200000   20.000000  OUTLET    
87               0.020000   0.030000   0.050000   0.200000   20.000000  OUTLET    
88               0.020000   0.030000   0.050000   0.200000   20.000000  OUTLET    
89               0.020000   0.030000   0.050000   0.200000   20.000000  OUTLET    
9                0.020000   0.030000   0.050000   0.200000   20.000000  OUTLET    
90               0.020000   0.030000   0.050000   0.200000   20.000000  OUTLET    
91               0.020000   0.030000   0.050000   0.200000   20.000000  OUTLET    
92               0.020000   0.030000   0.050000   0.200000   20.000000  OUTLET    
93               0.020000   0.030000   0.050000   0.200000   20.000000  OUTLET    
94               0.020000   0.030000   0.050000   0.200000   20.000000  OUTLET    
95               0.020000   0.030000   0.050000   0.200000   20.000000  OUTLET    
96               0.020000   0.030000   0.050000   0.200000   20.000000  OUTLET    
97               0.020000   0.030000   0.050000   0.200000   20.000000  OUTLET    
98               0.020000   0.030000   0.050000   0.200000   20.000000  OUTLET    
99               0.020000   0.030000   0.050000   0.200000   20.000000  OUTLET    
SUB-472          0.020000   0.030000   0.050000   0.200000   20.000000  OUTLET    
SUB-474          0.020000   0.030000   0.050000   0.200000   20.000000  OUTLET    
SUB-478          0.020000   0.030000   0.050000   0.200000   20.000000  OUTLET    
SUB-480          0.020000   0.030000   0.050000   0.200000   20.000000  OUTLET    

[INFILTRATION]
;;Subcatchment   MaxRate    MinRate    Decay      DryTime    MaxInfil  
;;-------------- ---------- ---------- ---------- ---------- ----------
0                2.931433   0.479430   6.619877   19.645608  1.931433  
1                2.863411   0.459023   6.758642   21.278147  1.863411  
10               2.538805   0.361641   7.420838   29.068686  1.538805  
100              2.864449   0.459335   6.756525   21.253235  1.864449  
101              2.647249   0.394175   7.199612   26.466027  1.647249  
102              2.626787   0.388036   7.241355   26.957122  1.626787  
103              2.997913   0.499374   6.484258   18.050092  1.997913  
104              2.535794   0.360738   7.426980   29.140940  1.535794  
105              2.546140   0.363842   7.405875   28.892641  1.546140  
106              2.836143   0.450843   6.814268   21.932561  1.836143  
107              2.842503   0.452751   6.801295   21.779937  1.842503  
108              2.943015   0.482904   6.596250   19.367645  1.943015  
109              2.971772   0.491531   6.537586   18.677482  1.971772  
11               2.726832   0.418050   7.037262   24.556029  1.726832  
110              2.538766   0.361630   7.420917   29.069617  1.538766  
111              2.978323   0.493497   6.524222   18.520259  1.978323  
112              2.662190   0.398657   7.169133   26.107444  1.662190  
113              2.871513   0.461454   6.742114   21.083699  1.871513  
114              2.513988   0.354196   7.471464   29.664285  1.513988  
115              2.589757   0.376927   7.316896   27.845839  1.589757  
116              2.517699   0.355310   7.463895   29.575230  1.517699  