[TITLE]
;;Project Title/Notes

[OPTIONS]
;;Option             Value
FLOW_UNITS           CMS
INFILTRATION         HORTON
FLOW_ROUTING         DYNWAVE
LINK_OFFSETS         ELEVATION
MIN_SLOPE            0
ALLOW_PONDING        YES
SKIP_STEADY_STATE    NO

START_DATE           08/05/2011
START_TIME           00:00:00
REPORT_START_DATE    08/05/2011
REPORT_START_TIME    00:01:00
END_DATE             08/05/2011
END_TIME             05:00:00
SWEEP_START          01/01
SWEEP_END            02/01
DRY_DAYS             0
REPORT_STEP          00:00:30
WET_STEP             00:00:30
DRY_STEP             00:00:30
ROUTING_STEP         0:00:01 

INERTIAL_DAMPING     PARTIAL
NORMAL_FLOW_LIMITED  BOTH
FORCE_MAIN_EQUATION  H-W
VARIABLE_STEP        0.00
LENGTHENING_STEP     0
MIN_SURFAREA         0.7
MAX_TRIALS           0
HEAD_TOLERANCE       0
SYS_FLOW_TOL         5
LAT_FLOW_TOL         5
MINIMUM_STEP         0.5
THREADS              1

[EVAPORATION]
;;Data Source    Parameters
;;-------------- ----------------
CONSTANT         0.0
DRY_ONLY         NO

[RAINGAGES]
;;Name           Format    Interval SCF      Source    
;;-------------- --------- ------ ------ ----------
1                INTENSITY 0:15     1.0      TIMESERIES ex1             
return2yr        INTENSITY 0:10     1.0      TIMESERIES Return2yr       
return10yr       INTENSITY 0:10     1.0      TIMESERIES Return10yr      
return25yr       INTENSITY 0:10     1.0      TIMESERIES Return25yr      
return50yr       INTENSITY 0:10     1.0      TIMESERIES Return50yr      
return100yr      INTENSITY 0:10     1.0      TIMESERIES Return100yr     

[SUBCATCHMENTS]
;;Name           Rain Gage        Outlet           Area     %Imperv  Width    %Slope   CurbLen  SnowPack        
;;-------------- ---------------- ---------------- -------- -------- -------- -------- -------- ----------------
Land-356         return2yr        S-2-M04          0.00     100      3        1.000    0                        
Land-357         return2yr        S-2-M(beside-R)-1(u) 0.00     100      3        1.000    0                        
Land-358         return2yr        S-2-M(beside-R)-2(u) 0.01     100      3        1.000    0                        
Land-359         return2yr        S-2-M(beside-R)-3(u) 0.01     100      3        1.000    0                        
Land-360         return2yr        S-2-M(beside-R)-4-1-6(u) 0.00     100      3        1.000    0                        
Land-361         return2yr        S-2-M(beside-R)-4-1-2(u) 0.00     100      3        1.000    0                        
Land-362         return2yr        S-2-M(beside-R)-4-1-1(u) 0.00     100      3        1.000    0                        
Land-363         return2yr        S-2-M(beside-R)-4-1(u) 0.00     100      3        1.000    0                        
Land-364         return2yr        S-2-M(beside-R)-4(u) 0.01     100      3        1.000    0                        
Land-365         return2yr        S-2-M(beside-R)-6(u) 0.01     100      3        1.000    0                        
Land-366         return2yr        S-2-M(beside-R)-4-2-1(u) 0.00     100      3        1.000    0                        
Land-367         return2yr        S-2-M(beside-R)-4-2-3(u) 0.00     100      3        1.000    0                        
Land-368         return2yr        S-2-M(beside-R2)-4(u) 0.01     100      3        1.000    0                        
Land-369         return2yr        S-2-M(beside-R2)-6(u) 0.01     100      3        1.000    0                        
Land-370         return2yr        S-2-M12          0.00     100      3        1.000    0                        
Land-371         return2yr        S-2-M(beside-R5)-1(u) 0.01     100      3        1.000    0                        
Land-372         return2yr        S-2-M(beside-R3)-1-1-1(u) 0.01     100      3        1.000    0                        
Land-373         return2yr        S-2-M(beside-R5)-3(u) 0.01     100      3        1.000    0                        
Land-374         return2yr        S-2-M(beside-R5)-5*(u) 0.01     100      3        1.000    0                        
Land-375         return2yr        S-2-M(beside-R5)-6(u) 0.01     100      3        1.000    0                        
Land-376         return2yr        S-2-M(beside-R5)-7(u) 0.01     100      3        1.000    0                        
Land-377         return2yr        S-2-M(beside-R5)-8(u) 0.01     100      3        1.000    0                        
Land-378         return2yr        S-2-M(beside-R5)-10(u) 0.01     100      3        1.000    0                        
Land-379         return2yr        S-2-M(beside-R5)-11(u) 0.01     100      3        1.000    0                        
Land-380         return2yr        S-2-M(beside-R5)-11(u) 0.01     100      3        1.000    0                        
Land-381         return2yr        S-2-M(beside-R5)-12(u) 0.03     100      3        1.000    0                        
Land-382         return2yr        S-2-M(beside-R5)-13(u) 0.01     100      3        1.000    0                        
Land-383         return2yr        S-2-M(beside-R)-4-2-6(u) 0.01     100      3        1.000    0                        
Land-384         return2yr        S-2-M(beside-R)-4-2-7(u) 0.01     100      3        1.000    0                        
Land-385         return2yr        S-2-M(beside-R)-4-2-9(u) 0.01     100      3        1.000    0                        
Land-386         return2yr        S-2-M(beside-R2)-4-5(u) 0.01     100      3        1.000    0                        
Land-387         return2yr        S-2-M(beside-R2)-4-4(u) 0.01     100      3        1.000    0                        
Land-388         return2yr        S-2-M(beside-R2)-4-3(u) 0.01     100      3        1.000    0                        
Land-389         return2yr        S-2-M(beside-R2)-7(u) 0.00     100      3        1.000    0                        
Land-390         return2yr        S-2-M(beside-R2)-8(u) 0.01     100      3        1.000    0                        
Land-391         return2yr        S-2-M(beside-R2)-11(u) 0.01     100      3        1.000    0                        
Land-392         return2yr        S-2-M(beside-R3)-1-1-4(u) 0.01     100      3        1.000    0                        
Land-393         return2yr        S-2-M(beside-R3)-1-1-2(u) 0.00     100      3        1.000    0                        
Land-394         return2yr        S-2-M(beside-R3)-1-1-1(u) 0.01     100      3        1.000    0                        
Land-395         return2yr        Land-373         0.01     100      3        1.000    0                        
Land-396         return2yr        Land-395         0.01     100      3        1.000    0                        
Land-397         return2yr        S-2-M(beside-R3)-1-2-2(u) 0.00     100      3        1.000    0                        
Land-398         return2yr        S-2-M(beside-R3)-1-2-4(u) 0.00     100      3        1.000    0                        
Land-399         return2yr        S-2-M(beside-R4)-1-1-5(u) 0.00     100      3        1.000    0                        
Land-400         return2yr        S-2-M(beside-R4)-1-1-5(u) 0.01     100      3        1.000    0                        
Land-401         return2yr        S-2-M(beside-R4)-1-1-4(u) 0.00     100      3        1.000    0                        
Land-402         return2yr        S-2-M(beside-R4)-1-1-3(u) 0.00     100      3        1.000    0                        
Land-403         return2yr        S-2-M(beside-R4)-1-1(u) 0.00     100      3        1.000    0                        
Land-404         return2yr        S-2-M(beside-R4)-1-1(u) 0.00     100      3        1.000    0                        
Land-405         return2yr        S-2-M(beside-R4)-1(u) 0.01     100      3        1.000    0                        
Land-406         return2yr        S-2-M(beside-R4)-1-2(u) 0.01     100      3        1.000    0                        
Land-407         return2yr        S-2-M(beside-R4)-1-3(u) 0.01     100      3        1.000    0                        
Land-408         return2yr        S-2-M(beside-R4)-1-4(u) 0.01     100      3        1.000    0                        
Land-409         return2yr        S-2-M(beside-R4)-1-5(u) 0.01     100      3        1.000    0                        
Land-410         return2yr        S-2-M(beside-R4)-1-7(u) 0.01     100      3        1.000    0                        
Land-411         return2yr        S-2-M(beside-R4)-1-9(u) 0.01     100      3        1.000    0                        
Land-412         return2yr        S-2-M(beside-R)-4-1-9(u) 0.01     100      3        1.000    0                        
Land-413         return2yr        S-2-M(beside-R)-4-2-13(u) 0.00     100      3        1.000    0                        
Land-4414        return2yr        S-6-M-10-L102-107-104-4(u) 0.01     100      3        1.000    0                        
Land-4415        return2yr        S-6-M-10-L102-107-104-4(u) 0.01     100      3        1.000    0                        
Land-4416        return2yr        S-6-M-10-L102-107-104-3(u) 0.00     100      3        1.000    0                        
Land-4417        return2yr        S-6-M-10-L102-107-104-2(u) 0.00     100      3        1.000    0                        
Land-4418        return2yr        S-6-M-10-L102-107-207(u) 0.01     100      3        1.000    0                        
Land-4419        return2yr        S-6-M-10-L102-107-206(u) 0.01     100      3        1.000    0                        
Land-4420        return2yr        S-6-M-10-L102-107-205(u) 0.00     100      3        1.000    0                        
Land-4421        return2yr        S-6-M-10-L102-107-205(u) 0.00     100      3        1.000    0                        
Land-4422        return2yr        S-6-M-10-L102-107-203(u) 0.00     100      3        1.000    0                        
Land-4423        return2yr        S-6-M-10-L102-107-202(u) 0.00     100      3        1.000    0                        
Land-4424        return2yr        S-6-M-10-L102-107-201(u) 0.00     100      3        1.000    0                        
Land-4425        return2yr        S-2-M20-L109/link2,6-201-9(u) 0.00     100      3        1.000    0                        
Land-4426        return2yr        S-2-M20-L109/link2,6-201-8(u) 0.00     100      3        1.000    0                        
Land-4427        return2yr        S-2-M20-L109/link2,6-201-7(u) 0.00     100      3        1.000    0                        
Land-4428        return2yr        S-2-M20-L109/link2,6-201-6(u) 0.00     100      3        1.000    0                        
Land-4429        return2yr        S-6-M-10-L102-107-204(u) 0.00     100      3        1.000    0                        
Land-4430        return2yr        S-6-M-10-L102-107-203(u) 0.00     100      3        1.000    0                        
Land-4431        return2yr        S-6-M-10-L102-107-202(u) 0.00     100      3        1.000    0                        
Land-4432        return2yr        S-6-M-10-L102-107-201(u) 0.00     100      3        1.000    0                        
Land-4433        return2yr        S-2-M20-L109/link2,6-201-5(u) 0.00     100      3        1.000    0                        
Land-4434        return2yr        S-2-M20-L109/link2,6-201-1(u) 0.00     100      3        1.000    0                        
Land-4435        return2yr        S-2-M20-L109/link2,6-200(u) 0.00     100      3        1.000    0                        
Land-4436        return2yr        S-2-M(beside-R4)-1-3(u) 0.00     100      3        1.000    0                        
Land-4437        return2yr        S-2-M(beside-R4)-1-3(u) 0.00     100      3        1.000    0                        
Land-4438        return2yr        S-2-M(beside-R4)-1-4(u) 0.00     100      3        1.000    0                        
Land-4439        return2yr        S-2-M(beside-R4)-1-4(u) 0.00     100      3        1.000    0                        
Land-4440        return2yr        Land-382         0.00     100      3        1.000    0                        
Land-4441        return2yr        S-2-M20-L109/link2,6-106(u) 0.00     100      3        1.000    0                        
Land-4442        return2yr        S-2-M20-L109/link2,6-104(u) 0.00     100      3        1.000    0                        
Land-4443        return2yr        S-2-M20-L109/link2,6-105(u) 0.01     100      3        1.000    0                        
Land-4444        return2yr        S-2-M20-L109/link2,6-104(u) 0.00     100      3        1.000    0                        
Land-4445        return2yr        S-2-M20-L109/link2,6-103(u) 0.00     100      3        1.000    0                        
Land-4446        return2yr        S-2-M20-L109/link2,6-102(u) 0.00     100      3        1.000    0                        
Land-4447        return2yr        S-2-M20-L106     0.00     100      3        1.000    0                        
Land-4448        return2yr        S-2-M20-L108     0.00     100      3        1.000    0                        
Land-4449        return2yr        S-2-M20-L109/link2,6-main(u) 0.00     100      3        1.000    0                        
Land-4450        return2yr        S-2-M20-L109/link2,6-110(u) 0.00     100      3        1.000    0                        
Land-4451        return2yr        S-2-M20-L109/link2,6-113(u) 0.00     100      3        1.000    0                        
Land-4452        return2yr        S-2-M20-L109/link2,6-114(u) 0.01     100      3        1.000    0                        
Land-4453        return2yr        S-2-M20-L105     0.00     100      3        1.000    0                        
Land-4454        return2yr        S-2-M20-L106     0.00     100      3        1.000    0                        
Land-4455        return2yr        S-2-M20-L107     0.00     100      3        1.000    0                        
Land-4456        return2yr        S-2-M20-L109/link2,6 0.00     100      3        1.000    0                        
Land-4460        return2yr        S-2-M02-L104-L103-L105 0.00     100      3        1.000    0                        
Land-4462        return2yr        sump3            0.01     100      3        1.000    0                        
Land-4463        return2yr        S-6-M-10-L102-107-101-4(u) 0.00     100      3        1.000    0                        
Land-4464        return2yr        S-6-M-10-L102-107-101-3(u) 0.01     100      3        1.000    0                        
Land-4466        return2yr        S-6-M-10-L102-107-101-1(u) 0.00     100      3        1.000    0                        
Land-4467        return2yr        S-6-M-10-L102-107-102(u) 0.00     100      3        1.000    0                        
Land-4468        return2yr        S-6-M-10-L102-107-101link104-2(u) 0.00     100      3        1.000    0                        
Land-4469        return2yr        S-6-M-10-L102-107-103(u) 0.00     100      3        1.000    0                        
Land-4471        return2yr        S-2-M20-L109/link2,6-202-8(u) 0.00     100      3        1.000    0                        
Land-4472        return2yr        S-2-M20-L109/link2,6-202-2(u) 0.00     100      3        1.000    0                        
Land-4473        return2yr        S-2-M20-L109/link2,6-202-2(u) 0.00     100      3        1.000    0                        
Land-4474        return2yr        S-2-M20-L109/link2,6-202-3(u) 0.00     100      3        1.000    0                        
Land-4475        return2yr        S-2-M20-L109/link2,6-202-3(u) 0.00     100      3        1.000    0                        
Land-4476        return2yr        S-2-M20-L109/link2,6-202-8(u) 0.00     100      3        1.000    0                        
Land-4477        return2yr        S-2-M20-L109/link2,6-202-7(u) 0.00     100      3        1.000    0                        
Land-4478        return2yr        S-2-M20-L109/link2,6-202-6(u) 0.00     100      3        1.000    0                        
Land-4479        return2yr        S-2-M20-L109/link2,6-202-5(u) 0.00     100      3        1.000    0                        
Land-4480        return2yr        S-2-M20-L109/link2,6-202-5(u) 0.00     100      3        1.000    0                        
Land-4481        return2yr        S-2-M20-L109/link2,6-202-4(u) 0.00     100      3        1.000    0                        
Land-4482        return2yr        S-2-M20-L109/link2,6-202-5(u) 0.01     5        3        1.000    0                        
Land-4483        return2yr        S-2-M20-L109/link2,6-202-4(u) 0.00     5        3        1.000    0                        
Land-4484        return2yr        S-2-M20-L109/link2,6-201-8(u) 0.01     100      3        1.000    0                        
Land-4485        return2yr        S-2-M20-L109/link2,6-202-6(u) 0.00     5        3        1.000    0                        
Land-4486        return2yr        S-2-M20-L109/link2,6-201-8(u) 0.00     100      3        1.000    0                        
Land-4487        return2yr        S-2-M20-L109/link2,6-201-7(u) 0.00     100      3        1.000    0                        
Land-4488        return2yr        S-2-M20-L109/link2,6-202-8(u) 0.00     5        3        1.000    0                        
Land-4489        return2yr        S-2-M20-L109/link2,6-202-8(u) 0.00     5        3        1.000    0                        
Land-4490        return2yr        S-2-M20-L109/link2,6-201-4(u) 0.00     100      3        1.000    0                        
Land-4491        return2yr        S-2-M20-L109/link2,6-201-1(u) 0.00     100      3        1.000    0                        
Land-4492        return2yr        S-2-M20-L109/link2,6-202-2(u) 0.00     5        3        1.000    0                        
Land-4493        return2yr        S-2-M20-L109/link2,6-202-2(u) 0.00     5        3        1.000    0                        
Land-4494        return2yr        S-2-M20-L109/link2,6-200(u) 0.00     100      3        1.000    0                        
Land-4495        return2yr        S-2-M20-L109/link2,6-202-3(u) 0.00     5        3        1.000    0                        
Land-4496        return2yr        S-2-M20-L109/link2,6-114(u) 0.00     100      3        1.000    0                        
Land-4497        return2yr        S-2-M20-L109/link2,6-202-4(u) 0.00     10       3        1.000    0                        
Land-4498        return2yr        S-2-M20-L109/link2,6-113(u) 0.01     5        3        1.000    0                        
Land-4499        return2yr        S-2-M20-L109/link2,6-110(u) 0.01     100      3        1.000    0                        
Land-4500        return2yr        Land-near-B8-3   0.01     100      3        1.000    0                        
Land-552         return2yr        S-1-M03          0.00     40       3        1.000    0                        
Land-B21[2]-1    return2yr        S-2-M20-L104-L101-link-6-M17-4(u) 0.01     5        3        1.000    0                        
Land-B21[2]-2    return2yr        S-2-M20-L104-L101-link-6-M17-3(u) 0.00     100      3        1.000    0                        
Land-B21[2]-3    return2yr        S-2-M20-L104-L101-link-6-M17-2(u) 0.00     100      3        1.000    0                        
Land-B21[2]-4    return2yr        S-2-M20-L104-L101-link-6-M17-1(u) 0.00     100      3        1.000    0                        
Land-G-B3        return2yr        S-6-M06-L5(u)    0.02     15       3        57.70    0                        
Land-G-B-X-3/1   return2yr        S-4-M10-L201-202-107(u) 0.02     0        3        1.000    0                        
Land-G-B-X-3/2   return2yr        Land-G-B-X-3/1   0.00     0        3        1.000    0                        
Land-Grass-1     return2yr        S-2-M20-L104-L101-right-116(u) 0.03     5        3        1.000    0                        
Land-Grass-2     return2yr        S-2-M20-L104-L101-right-113-106-107(u) 0.01     5        3        1.000    0                        
Land-Grass-3     return2yr        S-2-M20-L104-L101-right-113-106-108(u) 0.02     5        3        1.000    0                        
Land-near-       return2yr        S-2-M02-L105     0.01     10       3        1.000    0                        
Land-near-B[45]-10 return2yr        S-2-M20-L104-L109-1 0.01     100      3        1.000    0                        
Land-near-B[45]-5 return2yr        S-2-M20-L104-L103-4(u) 0.01     100      3        1.000    0                        
Land-near-B[45]-6 return2yr        S-2-M20-L104-L101-right-103-6(u) 0.00     100      3        1.000    0                        
Land-near-B[45]-7 return2yr        S-2-M20-L104-L101-right-103-3(u) 0.00     100      3        1.000    0                        
Land-near-B[45]-8 return2yr        S-2-M20-L104-L103-4(u) 0.01     100      3        1.000    0                        
Land-near-B[45]-9 return2yr        S-2-M20-L104-L109-1 0.01     100      3        1.000    0                        
Land-near-B[shop]-1 return2yr        Land-near-B[shop]-2 0.00     10       3        1.000    0                        
Land-near-B[shop]-2 return2yr        S-2-M07-L01-205(u) 0.01     10       3        1.000    0                        
Land-near-B1-1   return2yr        S-2-M(beside-R)-4-1-9(u) 0.01     100      3        1.000    0                        
Land-near-B1-2   return2yr        Land-near-B1-1   0.01     100      3        1.000    0                        
land-near-B12-1  return2yr        S-6-M-10-L102-107(u) 0.00     50       3        1.000    0                        
Land-near-B1-22  return2yr        S-2-M02-L104-L103-L105 0.01     100      3        1.000    0                        
land-near-B12-2  return2yr        S-6-M-10-L102-107(u) 0.00     50       3        1.000    0                        
Land-near-B1-23  return2yr        S-2-M02-L104-L103-L105 0.02     100      3        1.000    0                        
land-near-B12-3  return2yr        S-6-M-10-L102-107-201(u) 0.00     50       3        1.000    0                        
land-near-B12-4  return2yr        S-6-M-10-L102-107-201(u) 0.00     50       3        1.000    0                        
land-near-B12-5  return2yr        S-6-M-10-L102-107(u) 0.00     100      3        50.00    0                        
land-near-B12-6  return2yr        land-near-B12-2  0.00     100      3        1.000    0                        
Land-near-B1-3   return2yr        Land-near-B1-4   0.01     100      3        1.000    0                        
Land-near-B1-4   return2yr        S-2-M02-L104-L104 0.00     100      3        1.000    0                        
Land-near-B1-5   return2yr        S-2-M(beside-R)-4-2-11(u) 0.01     100      3        1.000    0                        
Land-near-B1-6   return2yr        S-2-M(beside-R)-4-2-12(u) 0.01     100      3        1.000    0                        
Land-near-B1-7   return2yr        S-2-M02-L104-L104 0.00     100      3        1.000    0                        
Land-near-B1-8   return2yr        S-2-M02-L104-L104 0.00     100      3        1.000    0                        
Land-near-B1-9   return2yr        Road-front-B1-4  0.01     100      3        1.000    0                        
Land-near-B2-1   return2yr        S-3-M02          0.02     100      3        1.000    0                        
Land-near-B2-2   return2yr        S-3-M02          0.01     100      3        1.000    0                        
Land-near-B2-3   return2yr        S-3-M03          0.01     100      3        1.000    0                        
Land-near-B23-1  return2yr        S-2-M20-L104-L103*1-3(u) 0.01     100      3        1.000    0                        
Land-near-B23-2  return2yr        S-2-M20-L104-L103*1-1 0.01     100      3        1.000    0                        
Land-near-B23-3  return2yr        S-6-M21-L111(u)  0.00     100      3        1.000    0                        
Land-near-B23-4  return2yr        S-6-M21-L108(u)  0.01     100      3        1.000    0                        
Land-near-B2-4   return2yr        S-3-M04          0.01     100      3        1.000    0                        
Land-near-B24-1  return2yr        S-2-M23-L1-2(u)  0.00     100      3        1.000    0                        
Land-near-B24-2  return2yr        S-2-M21          0.00     100      3        1.000    0                        
Land-near-B24-3  return2yr        Land-near-B24-3  0.00     100      3        1.000    0                        
Land-near-B24-6  return2yr        S-2-M23-Lmain    0.00     100      3        1.000    0                        
Land-near-B25-1  return2yr        S-2-M23-L2-1(u)  0.00     100      3        1.000    0                        
Land-near-B25-2  return2yr        S-2-M23-L2-4(u)  0.01     100      3        1.000    0                        
Land-near-B25-3  return2yr        S-2-M20-L104-L103-4(u) 0.00     100      3        1.000    0                        
Land-near-B25-4  return2yr        S-2-M20-L104-L101-right-103-8(u) 0.00     100      3        1.000    0                        
Land-near-B25-5  return2yr        S-2-M21(besideL)-3(u) 0.00     100      3        1.000    0                        
Land-near-B25-6  return2yr        S-2-M21(besideL)-2(u) 0.00     100      3        1.000    0                        
Land-near-B25-7  return2yr        S-2-M21(besideL)-1(u) 0.00     100      3        1.000    0                        
Land-near-B26-1  return2yr        S-2-M03-L101-17(u) 0.01     100      3        1.000    0                        
Land-near-B2-7   return2yr        S-3-M05          0.00     100      3        1.000    0                        
Land-near-B2-8   return2yr        S-3-M06          0.00     100      3        1.000    0                        
Land-near-B28-1  return2yr        S-2-M03-L101*12-2(u) 0.01     100      3        1.000    0                        
Land-near-B28-2  return2yr        S-2-M03-L101*12(u) 0.00     100      3        1.000    0                        
Land-near-B28-3  return2yr        S-2-M03-L101*12-1(u) 0.01     100      3        1.000    0                        
Land-near-B28-4  return2yr        S-2-M03-L101-13(u) 0.01     100      3        1.000    0                        
Land-near-B28-5  return2yr        S-Maintenance-01 0.00     100      3        1.000    0                        
Land-near-B2-9   return2yr        S-3-M07          0.00     100      3        1.000    0                        
Land-near-B29-1  return2yr        S-Maintenance-03 0.00     100      3        1.000    0                        
Land-near-B29-2  return2yr        S-Maintenance-02 0.01     100      3        1.000    0                        
Land-near-B29-3  return2yr        S-Maintenance-01 0.01     100      3        1.000    0                        
Land-near-B29-4  return2yr        S-2-M03-L101-10(u) 0.01     100      3        1.000    0                        
Land-near-B29-5  return2yr        S-2-M03-L101-11(u) 0.01     100      3        1.000    0                        
land-near-B3-1   return2yr        S-6-M02-Lmain(u) 0.00     60       3        1.000    0                        
Land-near-B31-1  return2yr        S-2-M03-L101-18-101(u) 0.01     100      3        1.000    0                        
land-near-B3-2   return2yr        S-6-M02-L-201(u) 0.00     60       3        1.000    0                        
land-near-B3-3   return2yr        S-6-M06-L2(u)    0.00     60       3        1.000    0                        
Land-near-B33-1  return2yr        S-2-M03-L101-18-102(u) 0.01     100      3        1.000    0                        
Land-near-B3-4   return2yr        S-6-M02-L-203(u) 0.00     100      3        1.000    0                        
Land-near-B3-5   return2yr        S-6-M02-L-206(u) 0.00     100      3        1.000    0                        
Land-near-B3-6   return2yr        S-6-M02-L-206(u) 0.01     10       3        1.000    0                        
Land-near-B3-7   return2yr        S-2-M06(beside-L1)-4(u) 0.01     1        3        1.000    0                        
Land-near-B3-8   return2yr        S-6-M02-L-105(u) 0.00     100      3        1.000    0                        
Land-near-B40-1  return2yr        Road-link-top15  0.00     100      3        1.000    0                        
Land-near-B4-1   return2yr        S-2-M07-L01-102(u) 0.00     100      3        1.000    0                        
Land-near-B41-1  return2yr        Road-link-top16  0.01     100      3        1.000    0                        
Land-near-B41-10 return2yr        Road-link-top19  0.00     100      3        1.000    0                        
Land-near-B41-11 return2yr        Road-link-top20  0.00     100      3        1.000    0                        
Land-near-B41-2  return2yr        Road-link-top17  0.01     100      3        1.000    0                        
Land-near-B41-3  return2yr        Road-link-top18  0.00     100      3        1.000    0                        
Land-near-B41-4  return2yr        Road-link-top18  0.00     100      3        1.000    0                        
Land-near-B41-5  return2yr        S-6-M13-L4-9(u)  0.00     100      3        1.000    0                        
Land-near-B41-6  return2yr        S-6-M13-L4-8(u)  0.00     100      3        1.000    0                        
Land-near-B41-7  return2yr        S-6-M13-L4-7(u)  0.00     100      3        1.000    0                        
Land-near-B41-8  return2yr        S-6-M13-L4-5(u)  0.00     100      3        1.000    0                        
Land-near-B41-9  return2yr        Road-link-top19  0.00     100      3        1.000    0                        
Land-near-B4-2   return2yr        S-2-M07-L01-101(u) 0.01     100      3        1.000    0                        
Land-near-B4-3   return2yr        S-2-M07-L01-103(u) 0.01     100      3        1.000    0                        
Land-near-B4-4   return2yr        S-2-M07-L01-104(u) 0.00     100      3        1.000    0                        