[TITLE]
;;Project Title/Notes

[OPTIONS]
;;Option             Value
FLOW_UNITS           CMS
INFILTRATION         HORTON
FLOW_ROUTING         KINWAVE
LINK_OFFSETS         DEPTH
MIN_SLOPE            0
ALLOW_PONDING        YES
SKIP_STEADY_STATE    NO

START_DATE           07/08/2015
START_TIME           00:00:00
REPORT_START_DATE    07/08/2015
REPORT_START_TIME    00:00:00
END_DATE             07/09/2015
END_TIME             00:00:00
SWEEP_START          01/01
SWEEP_END            12/31
DRY_DAYS             0
REPORT_STEP          00:15:00
WET_STEP             00:05:00
DRY_STEP             01:00:00
ROUTING_STEP         0:00:30 

INERTIAL_DAMPING     PARTIAL
NORMAL_FLOW_LIMITED  BOTH
FORCE_MAIN_EQUATION  H-W
VARIABLE_STEP        0.75
LENGTHENING_STEP     0
MIN_SURFAREA         1.14
MAX_TRIALS           8
HEAD_TOLERANCE       0.0015
SYS_FLOW_TOL         5
LAT_FLOW_TOL         5
MINIMUM_STEP         0.5
THREADS              1

[EVAPORATION]
;;Data Source    Parameters
;;-------------- ----------------
CONSTANT         0.0
DRY_ONLY         NO

[RAINGAGES]
;;Name           Format    Interval SCF      Source    
;;-------------- --------- ------ ------ ----------
Gage1            INTENSITY 0:05     1.0      TIMESERIES T50-24hr-scs    

[SUBCATCHMENTS]
;;Name           Rain Gage        Outlet           Area     %Imperv  Width    %Slope   CurbLen  SnowPack        
;;-------------- ---------------- ---------------- -------- -------- -------- -------- -------- ----------------
S25              Gage1            J324             0.07     5        0.26     0.1      0                        
S26              Gage1            J325             0.04     5        0.20     0.1      0                        
S27              Gage1            J327             0.02     5        0.14     0.1      0                        
S28              Gage1            J326             0.01     5        0.10     0.1      0                        
S29              Gage1            J91              0.19     50       0.44     0.1      0                        
S30              Gage1            J86              0.16     50       0.40     0.1      0                        
S31              Gage1            J78              0.16     50       0.40     0.1      0                        
S32              Gage1            J71              0.13     50       0.36     0.1      0                        
S33              Gage1            J65              0.11     50       0.33     0.1      0                        
S34              Gage1            J60              0.06     50       0.24     0.1      0                        
S35              Gage1            J57              0.05     50       0.22     0.1      0                        
S36              Gage1            J59              0.06     50       0.24     0.1      0                        
S37              Gage1            J51              0.04     50       0.20     0.1      0                        
S38              Gage1            J330             0.02     50       0.14     0.1      0                        
S39              Gage1            J330             0.01     50       0.10     0.1      0                        
S40              Gage1            J92              0.06     50       0.24     0.1      0                        
S41              Gage1            J93              0.03     50       0.17     0.1      0                        
S42              Gage1            j94              0.03     50       0.17     0.1      0                        
S43              Gage1            J95              0.02     50       0.14     0.1      0                        
S44              Gage1            J96              0.06     50       0.24     0.1      0                        
S45              Gage1            J60              0.02     50       0.14     0.1      0                        
S46              Gage1            J52              0.03     50       0.17     0.1      0                        
S47              Gage1            J103             0.05     50       0.22     0.1      0                        
S48              Gage1            J103             0.05     50       0.22     0.1      0                        
S49              Gage1            J101             0.03     50       0.17     0.1      0                        
S50              Gage1            J10              0.03     50       0.17     0.1      0                        
S51              Gage1            J106             0.04     50       0.20     0.1      0                        
S52              Gage1            J107             0.03     50       0.17     0.1      0                        
S53              Gage1            J107             0.02     50       0.14     0.1      0                        
S54              Gage1            J104             0.02     50       0.14     0.1      0                        
S55              Gage1            J105             0.02     50       0.14     0.1      0                        
S56              Gage1            J109             0.05     50       0.22     0.1      0                        
S57              Gage1            J363             0.05     80       0.22     0.1      0                        
S58              Gage1            J363             0.03     80       0.17     0.1      0                        
S59              Gage1            J363             0.03     80       0.17     0.1      0                        
S60              Gage1            J363             0.05     80       0.22     0.1      0                        
S61              Gage1            J363             0.09     80       0.30     0.1      0                        
S62              Gage1            J363             0.09     80       0.30     0.1      0                        
S63              Gage1            J120             0.06     80       0.24     0.1      0                        
S64              Gage1            J120             0.07     80       0.26     0.1      0                        
S65              Gage1            J120             0.07     80       0.26     0.1      0                        
S66              Gage1            J133             0.04     80       0.20     0.1      0                        
S67              Gage1            J133             0.04     80       0.20     0.1      0                        
S68              Gage1            J133             0.06     80       0.24     0.1      0                        
S69              Gage1            J133             0.05     80       0.22     0.1      0                        
S70              Gage1            J142             0.02     80       0.14     0.1      0                        
S71              Gage1            J143             0.04     80       0.20     0.1      0                        
S72              Gage1            J144             0.03     80       0.17     0.1      0                        
S73              Gage1            J133             0.09     80       0.30     0.1      0                        
S74              Gage1            J133             0.10     80       0.32     0.1      0                        
S75              Gage1            J145             0.02     80       0.14     0.1      0                        
S76              Gage1            J146             0.05     80       0.22     0.1      0                        
S77              Gage1            J147             0.02     80       0.14     0.1      0                        
S78              Gage1            J155             0.03     80       0.17     0.1      0                        
S79              Gage1            J155             0.03     80       0.17     0.1      0                        
S80              Gage1            J155             0.06     80       0.24     0.1      0                        
S81              Gage1            J155             0.05     80       0.22     0.1      0                        
S82              Gage1            J155             0.09     80       0.30     0.1      0                        
S83              Gage1            J155             0.09     80       0.30     0.1      0                        
S84              Gage1            J165             0.02     80       0.14     0.1      0                        
S85              Gage1            J166             0.05     80       0.22     0.1      0                        
S86              Gage1            J167             0.03     80       0.17     0.1      0                        
S88              Gage1            J175             0.09     80       0.24     0.1      0                        
S89              Gage1            J175             0.03     80       0.17     0.1      0                        
S90              Gage1            J175             0.05     80       0.22     0.1      0                        
S91              Gage1            J175             0.09     80       0.30     0.1      0                        
S92              Gage1            J175             0.10     80       0.32     0.1      0                        
S93              Gage1            J126             0.03     80       0.17     0.1      0                        
S94              Gage1            J125             0.04     80       0.20     0.1      0                        
S95              Gage1            J124             0.03     80       0.17     0.1      0                        
S96              Gage1            J135             0.06     80       0.24     0.1      0                        
S97              Gage1            J135             0.07     80       0.26     0.1      0                        
S98              Gage1            J135             0.06     80       0.24     0.1      0                        
S99              Gage1            J141             0.03     80       0.17     0.1      0                        
S100             Gage1            J140             0.04     80       0.20     0.1      0                        
S101             Gage1            J139             0.03     80       0.17     0.1      0                        
S102             Gage1            J157             0.06     80       0.24     0.1      0                        
S103             Gage1            J157             0.07     80       0.26     0.1      0                        
S104             Gage1            J157             0.06     80       0.24     0.1      0                        
S105             Gage1            J163             0.03     80       0.17     0.1      0                        
S106             Gage1            J162             0.03     80       0.17     0.1      0                        
S107             Gage1            J161             0.03     80       0.17     0.1      0                        
S108             Gage1            J177             0.07     80       0.26     0.1      0                        
S109             Gage1            J177             0.07     80       0.26     0.1      0                        
S110             Gage1            J177             0.07     80       0.26     0.1      0                        
S111             Gage1            J211             0.02     20       0.14     0.1      0                        
S112             Gage1            J211             0.04     20       0.20     0.1      0                        
S113             Gage1            J211             0.04     80       0.20     0.1      0                        
S114             Gage1            J212             0.05     80       0.22     0.1      0                        
S115             Gage1            J183             0.02     80       0.14     0.1      0                        
S116             Gage1            J182             0.03     80       0.17     0.1      0                        
S117             Gage1            J181             0.02     80       0.14     0.1      0                        
S118             Gage1            J217             0.03     20       0.17     0.1      0                        
S119             Gage1            J217             0.03     20       0.17     0.1      0                        
S120             Gage1            J217             0.03     20       0.17     0.1      0                        
S121             Gage1            J211             0.02     20       0.14     0.1      0                        
S122             Gage1            J211             0.04     20       0.20     0.1      0                        
S123             Gage1            J221             0.08     20       0.28     0.1      0                        
S124             Gage1            J221             0.09     20       0.30     0.1      0                        
S125             Gage1            J221             0.03     20       0.17     0.1      0                        
S126             Gage1            J221             0.04     20       0.20     0.1      0                        
S127             Gage1            J221             0.03     20       0.17     0.1      0                        
S128             Gage1            J229             0.02     80       0.14     0.1      0                        
S129             Gage1            J229             0.03     80       0.17     0.1      0                        
S130             Gage1            J229             0.04     80       0.20     0.1      0                        
S131             Gage1            J229             0.05     80       0.22     0.1      0                        
S132             Gage1            J229             0.08     80       0.28     0.1      0                        
S133             Gage1            J241             0.09     80       0.30     0.1      0                        
S134             Gage1            J239             0.04     80       0.20     0.1      0                        
S135             Gage1            J240             0.05     80       0.22     0.1      0                        
S136             Gage1            J250             0.03     80       0.17     0.1      0                        
S137             Gage1            J250             0.06     80       0.24     0.1      0                        
S138             Gage1            J250             0.03     80       0.17     0.1      0                        
S139             Gage1            J250             0.06     80       0.24     0.1      0                        
S140             Gage1            J250             0.09     80       0.30     0.1      0                        
S141             Gage1            J251             0.10     80       0.32     0.1      0                        
S142             Gage1            J260             0.04     80       0.20     0.1      0                        
S143             Gage1            J261             0.04     80       0.20     0.1      0                        
S144             Gage1            J241             0.06     80       0.24     0.1      0                        
S145             Gage1            J241             0.06     80       0.24     0.1      0                        
S146             Gage1            J241             0.06     80       0.24     0.1      0                        
S147             Gage1            J235             0.03     80       0.17     0.1      0                        
S148             Gage1            J235             0.03     80       0.17     0.1      0                        
S149             Gage1            J235             0.03     80       0.17     0.1      0                        
S150             Gage1            J251             0.07     80       0.26     0.1      0                        
S151             Gage1            J251             0.07     80       0.26     0.1      0                        
S152             Gage1            J254             0.07     80       0.26     0.1      0                        
S153             Gage1            J254             0.03     80       0.17     0.1      0                        
S154             Gage1            J254             0.03     80       0.17     0.1      0                        
S155             Gage1            J254             0.03     80       0.17     0.1      0                        
S156             Gage1            J316             0.11     80       0.33     0.1      0                        
S157             Gage1            J317             0.09     80       0.30     0.1      0                        
S158             Gage1            J311             0.10     80       0.32     0.1      0                        
S159             Gage1            J312             0.09     80       0.30     0.1      0                        
S160             Gage1            J200             0.17     5        0.41     0.1      0                        
S161             Gage1            J199             0.36     5        0.60     0.1      0                        
S162             Gage1            J198             0.36     5        0.60     0.1      0                        
S163             Gage1            J197             0.25     5        0.50     0.1      0                        
S164             Gage1            J307             0.13     5        0.36     0.1      0                        
S165             Gage1            J309             0.23     5        0.48     0.1      0                        
S166             Gage1            J302             0.32     5        0.57     0.1      0                        
S167             Gage1            J358             0.18     80       0.42     0.1      0                        
S168             Gage1            J50              0.07     80       0.26     0.1      0                        
S169             Gage1            J205             0.06     5        0.24     0.1      0                        
S170             Gage1            J204             0.11     5        0.33     0.1      0                        
S171             Gage1            J203             0.13     5        0.36     0.1      0                        
S172             Gage1            J202             0.06     5        0.24     0.1      0                        
S173             Gage1            J356             0.13     5        0.36     0.1      0                        
S174             Gage1            J308             0.13     5        0.36     0.1      0                        
S175             Gage1            J314             0.11     5        0.33     0.1      0                        
S176             Gage1            J199             0.07     5        0.26     0.1      0                        
S177             Gage1            J198             0.06     5        0.24     0.1      0                        
S181             Gage1            J302             0.20     5        0.45     0.1      0                        
S182             Gage1            J200             0.05     5        0.22     0.1      0                        
S183             Gage1            J302             0.04     5        0.20     0.1      0                        
S184             Gage1            J331             0.08     10       0.28     0.1      0                        
S185             Gage1            J332             0.10     10       0.32     0.1      0                        
S186             Gage1            J333             0.67     10       0.86     0.1      0                        
S187             Gage1            J334             0.69     5        .83      0.1      0                        
S188             Gage1            J335             0.21     10       0.46     0.1      0                        
S189             Gage1            J337             0.46     10       .68      0.1      0                        
S192             Gage1            J340             0.17     10       0.41     0.1      0                        
S193             Gage1            J341             0.11     10       0.33     0.1      0                        
S194             Gage1            J357             0.16     80       0.40     0.1      0                        
S195             Gage1            J201             0.16     80       0.40     0.1      0                        
S196             Gage1            J201             0.11     80       0.33     0.1      0                        
S197             Gage1            J29              0.05     10       0.22     0.1      0                        
S198             Gage1            J29              0.04     10       0.20     0.1      0                        
S199             Gage1            J29              0.05     10       0.22     0.1      0                        
S200             Gage1            J30              0.06     10       0.24     0.1      0                        
S201             Gage1            J329             0.05     10       0.22     0.1      0                        
S202             Gage1            J34              0.09     5        0.30     0.1      0                        
S203             Gage1            J35              0.03     80       0.17     0.1      0                        
S204             Gage1            J33              0.06     80       0.24     0.1      0                        
S205             Gage1            J38              0.04     80       0.20     0.1      0                        
S206             Gage1            J42              0.08     50       0.28     0.1      0                        
S207             Gage1            J41              0.14     5        0.37     0.1      0                        
S208             Gage1            J359             0.15     50       0.39     0.1      0                        
S209             Gage1            J360             0.09     50       0.30     0.1      0                        
S210             Gage1            J53              0.05     50       0.22     0.1      0                        
S211             Gage1            J293             0.32     2        0.57     0.1      0                        
S212             Gage1            J294             0.17     2        0.41     0.1      0                        
S213             Gage1            J299             0.18     2        0.42     0.1      0                        
S214             Gage1            J291             0.07     2        0.26     0.1      0                        
S215             Gage1            J305             0.06     2        0.24     0.1      0                        
S216             Gage1            J301             0.05     2        0.22     0.1      0                        
S217             Gage1            J290             0.06     80       0.24     0.1      0                        
S218             Gage1            J315             0.09     80       0.30     0.1      0                        
S219             Gage1            J313             0.16     5        0.40     0.1      0                        
S220             Gage1            J313             0.04     5        0.20     0.1      0                        
S221             Gage1            J364             0.06     80       0.24     0.1      0                        
S222             Gage1            J364             0.06     80       0.24     0.1      0                        
S223             Gage1            J286             0.06     80       0.24     0.1      0                        
S224             Gage1            J123             0.01     80       0.10     0.1      0                        
S225             Gage1            J137             0.02     80       0.14     0.1      0                        
S226             Gage1            J138             0.01     80       0.10     0.1      0                        
S227             Gage1            J159             0.03     80       0.17     0.1      0                        
S228             Gage1            J160             0.01     80       0.10     0.1      0                        
S229             Gage1            J179             0.03     80       0.17     0.1      0                        
S230             Gage1            J180             0.01     80       0.10     0.1      0                        
S231             Gage1            J217             0.01     20       0.10     0.1      0                        
S232             Gage1            J221             0.01     20       0.10     0.1      0                        
S233             Gage1            J241             0.02     80       0.14     0.1      0                        
S234             Gage1            J235             0.01     80       0.10     0.1      0                        
S235             Gage1            J254             0.03     80       0.17     0.1      0                        
S236             Gage1            J254             0.01     80       0.10     0.1      0                        
S237             Gage1            J397             0.06     80       0.24     0.1      0                        
S238             Gage1            J399             0.01     80       0.10     0.1      0                        
S239             Gage1            J263             0.03     80       0.17     0.1      0                        
S240             Gage1            J122             0.02     80       0.14     0.1      0                        
S241             Gage1            J111             0.05     80       0.22     0.1      0                        
S242             Gage1            J108             0.05     50       0.22     0.1      0                        
S243             Gage1            J109             0.06     80       0.24     0.1      0                        
S244             Gage1            J190             0.16     80       0.40     0.1      0                        
S245             Gage1            J54              0.18     80       0.42     0.1      0                        
S246             Gage1            J189             0.13     80       0.36     0.1      0                        
S247             Gage1            J189             0.10     80       0.32     0.1      0                        
S248             Gage1            J188             0.13     80       0.36     0.1      0                        
S249             Gage1            J188             0.11     80       0.33     0.1      0                        
S250             Gage1            J218             0.09     80       0.30     0.1      0                        
S251             Gage1            J218             0.08     80       0.28     0.1      0                        
S252             Gage1            J187             0.11     80       0.33     0.1      0                        
S253             Gage1            J276             0.06     80       0.24     0.1      0                        
S254             Gage1            J272             0.03     80       0.17     0.1      0                        
S255             Gage1            J271             0.08     80       0.28     0.1      0                        
S256             Gage1            J284             0.25     80       0.50     0.1      0                        
S257             Gage1            J267             0.04     80       0.20     0.1      0                        
S258             Gage1            J268             0.03     80       0.17     0.1      0                        
S259             Gage1            J283             0.04     80       0.20     0.1      0                        
S260             Gage1            J278             0.08     80       0.28     0.1      0                        
S261             Gage1            J352             0.19     5        0.44     0.1      0                        
S262             Gage1            J310             0.09     5        0.30     0.1      0                        
S264             Gage1            J292             0.37     2        0.61     0.1      0                        
S265             Gage1            J201             0.43     2        0.66     0.1      0                        
S266             Gage1            J56              0.09     80       0.30     0.1      0                        
S267             Gage1            J56              0.03     80       0.17     0.1      0                        
S268             Gage1            J375             0.10     2        0.32     0.1      0                        
S269             Gage1            J393             0.04     2        0.20     0.1      0                        
S270             Gage1            J394             0.09     2        0.30     0.1      0                        
S271             Gage1            J395             0.04     2        0.20     0.1      0                        
S272             Gage1            J392             0.05     2        0.22     0.1      0                        
S273             Gage1            J385             0.06     2        0.24     0.1      0                        
S274             Gage1            J376             0.06     2        0.24     0.1      0                        
S275             Gage1            J382             0.08     2        0.28     0.1      0                        
S276             Gage1            J392             0.04     2        0.20     0.1      0                        
S277             Gage1            J397             0.04     2        0.20     0.1      0                        

[SUBAREAS]
;;Subcatchment   N-Imperv   N-Perv     S-Imperv   S-Perv     PctZero    RouteTo    PctRouted 
;;-------------- ---------- ---------- ---------- ---------- ---------- ---------- ----------
S25              0.011      0.05       1          50         0          PERVIOUS   100       
S26              0.011      0.05       1          50         0          PERVIOUS   100       
S27              0.011      0.05       1          50         0          PERVIOUS   100       
S28              0.011      0.05       1          50         0          PERVIOUS   100       
S29              0.012      0.05       1          50         0          OUTLET    