[TITLE]
;;Project Title/Notes

[OPTIONS]
;;Option             Value
FLOW_UNITS           CFS
INFILTRATION         CURVE_NUMBER
FLOW_ROUTING         DYNWAVE
LINK_OFFSETS         DEPTH
MIN_SLOPE            0
ALLOW_PONDING        YES
SKIP_STEADY_STATE    NO

IGNORE_SNOWMELT      YES
IGNORE_GROUNDWATER   YES
IGNORE_QUALITY       YES
START_DATE           01/01/2016
START_TIME           00:00:00
REPORT_START_DATE    01/01/2016
REPORT_START_TIME    00:00:00
END_DATE             01/04/2016
END_TIME             00:00:00
SWEEP_START          01/01
SWEEP_END            12/31
DRY_DAYS             5.000000
REPORT_STEP          00:05:00
WET_STEP             00:05:00
DRY_STEP             01:00:00
ROUTING_STEP         0:00:10 

INERTIAL_DAMPING     FULL
NORMAL_FLOW_LIMITED  SLOPE
FORCE_MAIN_EQUATION  H-W
VARIABLE_STEP        0.75
LENGTHENING_STEP     10
MIN_SURFAREA         0
MAX_TRIALS           12
HEAD_TOLERANCE       0.000010
SYS_FLOW_TOL         5
LAT_FLOW_TOL         5
MINIMUM_STEP         0
THREADS              1

[EVAPORATION]
;;Data Source    Parameters
;;-------------- ----------------
CONSTANT         0.0
DRY_ONLY         NO

[RAINGAGES]
;;Name           Format    Interval SCF      Source    
;;-------------- --------- ------ ------ ----------
; New Raingage
RAINGAGE-1       CUMULATIVE 0.041667 1.000000 TIMESERIES 5YR_24HR        

[SUBCATCHMENTS]
;;Name           Rain Gage        Outlet           Area     %Imperv  Width    %Slope   CurbLen  SnowPack        
;;-------------- ---------------- ---------------- -------- -------- -------- -------- -------- ----------------
EX-143           RAINGAGE-1       POND_E           46.866000 0.000000 500.000000 0.500000 0.000000                 
EX-144           RAINGAGE-1       POND_D           42.314000 0.000000 500.000000 0.500000 0.000000                 
EX-145           RAINGAGE-1       POND_C           39.308000 0.000000 500.000000 0.500000 0.000000                 
EX-146           RAINGAGE-1       POND_B           38.620000 0.000000 500.000000 0.500000 0.000000                 
EX-147           RAINGAGE-1       POND_A1          66.700000 0.000000 500.000000 0.500000 0.000000                 
; New Subcatchment
EX-147_1         RAINGAGE-1       POND_A2          2.730000 0.000000 500.000000 0.500000 0.000000                 
EX-148           RAINGAGE-1       POND_F           38.882000 0.000000 500.000000 0.500000 0.000000                 
EX-15            RAINGAGE-1       STOR-61          4.834000 0.000000 500.000000 0.500000 0.000000                 
PROJ_100         RAINGAGE-1       ST-211D          5.040000 0.000000 500.000000 0.500000 0.000000                 
PROJ_101         RAINGAGE-1       ST-207B          1.160000 0.000000 500.000000 0.500000 0.000000                 
PROJ_102         RAINGAGE-1       CB49             2.589000 0.000000 500.000000 0.500000 0.000000                 
PROJ_103         RAINGAGE-1       STOR-60          2.472000 0.000000 500.000000 0.500000 0.000000                 
PROJ_106         RAINGAGE-1       CB37             0.737000 0.000000 500.000000 0.500000 0.000000                 
PROJ_107-1       RAINGAGE-1       CB39             0.298000 0.000000 500.000000 0.500000 0.000000                 
PROJ_107-2       RAINGAGE-1       CB35             0.186000 0.000000 500.000000 0.500000 0.000000                 
; New Subcatchment
PROJ_107-3       RAINGAGE-1       CB38             0.334000 0.000000 500.000000 0.500000 0.000000                 
; New Subcatchment
PROJ_108-1       RAINGAGE-1       CB34             1.067000 0.000000 500.000000 0.500000 0.000000                 
; New Subcatchment
PROJ_108-2       RAINGAGE-1       CB36             0.679000 0.000000 500.000000 0.500000 0.000000                 
PROJ_109         RAINGAGE-1       M26              1.008000 0.000000 500.000000 0.500000 0.000000                 
; New Subcatchment
PROJ_110-1       RAINGAGE-1       CB31             0.698000 0.000000 500.000000 0.500000 0.000000                 
PROJ_201         RAINGAGE-1       ST-211B          2.320000 0.000000 500.000000 0.500000 0.000000                 
; New Subcatchment
PROJ_204         RAINGAGE-1       ST-258C          0.800000 0.000000 500.000000 0.500000 0.000000                 
PROJ_43          RAINGAGE-1       CB32             0.697000 0.000000 500.000000 0.500000 0.000000                 
PROJ_44          RAINGAGE-1       CB33             0.697000 0.000000 500.000000 0.500000 0.000000                 
PROJ_45          RAINGAGE-1       PROPOSE_CB28     0.597000 0.000000 500.000000 0.500000 0.000000                 
PROJ_62          RAINGAGE-1       ST-258A          0.760000 0.000000 500.000000 0.500000 0.000000                 
PROJ_63          RAINGAGE-1       ST-255B          0.390000 0.000000 500.000000 0.500000 0.000000                 
PROJ_64          RAINGAGE-1       ST-255A          0.740000 0.000000 500.000000 0.500000 0.000000                 
PROJ_65          RAINGAGE-1       ST-255D          3.560000 0.000000 500.000000 0.500000 0.000000                 
PROJ_66          RAINGAGE-1       ST-215B          0.470000 0.000000 500.000000 0.500000 0.000000                 
PROJ_67          RAINGAGE-1       ST-215A          0.950000 0.000000 500.000000 0.500000 0.000000                 
PROJ_68          RAINGAGE-1       ST-253B          2.410000 0.000000 500.000000 0.500000 0.000000                 
PROJ_69          RAINGAGE-1       ST-215C          1.130000 0.000000 500.000000 0.500000 0.000000                 
PROJ_70          RAINGAGE-1       ST-212A          0.810000 0.000000 500.000000 0.500000 0.000000                 
PROJ_71          RAINGAGE-1       ST-212B          0.910000 0.000000 500.000000 0.500000 0.000000                 
PROJ_72          RAINGAGE-1       ST-214A          4.180000 0.000000 500.000000 0.500000 0.000000                 
; New Subcatchment
PROJ_72_2        RAINGAGE-1       ST-215D          1.470000 0.000000 500.000000 0.500000 0.000000                 
PROJ_75          RAINGAGE-1       ST-211C          1.020000 0.000000 500.000000 0.500000 0.000000                 
; New Subcatchment
PROJ_75-2        RAINGAGE-1       ST-211A          0.970000 0.000000 500.000000 0.500000 0.000000                 
PROJ_77          RAINGAGE-1       ST-208B          0.370000 0.000000 500.000000 0.500000 0.000000                 
PROJ_78          RAINGAGE-1       ST-208A          0.980000 0.000000 500.000000 0.500000 0.000000                 
PROJ_79          RAINGAGE-1       ST-207A          0.340000 0.000000 500.000000 0.500000 0.000000                 
PROJ_81          RAINGAGE-1       ST-208C          0.880000 0.000000 500.000000 0.500000 0.000000                 
PROJ_82          RAINGAGE-1       ST-203A          0.470000 0.000000 500.000000 0.500000 0.000000                 
PROJ_83          RAINGAGE-1       ST-203B          0.320000 0.000000 500.000000 0.500000 0.000000                 
PROJ_85          RAINGAGE-1       ST-201A          0.700000 0.000000 500.000000 0.500000 0.000000                 
PROJ_86          RAINGAGE-1       ST-201B          0.960000 0.000000 500.000000 0.500000 0.000000                 
PROJ_88          RAINGAGE-1       CB47             0.640000 0.000000 500.000000 0.500000 0.000000                 
PROJ_89          RAINGAGE-1       STOR-62          3.147000 0.000000 500.000000 0.500000 0.000000                 
PROJ_90          RAINGAGE-1       CB46             0.655000 0.000000 500.000000 0.500000 0.000000                 
PROJ_91          RAINGAGE-1       CB45             0.153000 0.000000 500.000000 0.500000 0.000000                 
PROJ_93          RAINGAGE-1       CB41             0.860000 0.000000 500.000000 0.500000 0.000000                 
; New Subcatchment
PROJ_93-1        RAINGAGE-1       CB43             0.221000 0.000000 500.000000 0.500000 0.000000                 
PROJ_94          RAINGAGE-1       CB42             0.713000 0.000000 500.000000 0.500000 0.000000                 
PROJ_95-2        RAINGAGE-1       M35              0.221000 0.000000 500.000000 0.500000 0.000000                 
PROJ_95-3        RAINGAGE-1       CB44             0.730000 0.000000 500.000000 0.500000 0.000000                 
; New Subcatchment
PROJ_95-4        RAINGAGE-1       CB40             0.113000 0.000000 500.000000 0.500000 0.000000                 
PROJ_96          RAINGAGE-1       ST-256B          1.580000 0.000000 500.000000 0.500000 0.000000                 
PROJ_97          RAINGAGE-1       ST-255C          0.950000 0.000000 500.000000 0.500000 0.000000                 
PROJ_98-3        RAINGAGE-1       ST-258D          1.920000 0.000000 500.000000 0.500000 0.000000                 
PROJ_99          RAINGAGE-1       ST-212C          3.260000 0.000000 500.000000 0.500000 0.000000                 
; New Subcatchment
PROPOSE_258B     RAINGAGE-1       ST-258B          0.200000 0.000000 500.000000 0.500000 0.000000                 
; New Subcatchment
PROPOSE_ST203B   RAINGAGE-1       ST-204B          0.620000 0.000000 500.000000 0.500000 0.000000                 
; New Subcatchment
PROPOSE_ST203C   RAINGAGE-1       ST-204C          0.230000 0.000000 500.000000 0.500000 0.000000                 
; New Subcatchment
PROPOSE_ST208D   RAINGAGE-1       ST-208D          1.680000 0.000000 500.000000 0.500000 0.000000                 

[SUBAREAS]
;;Subcatchment   N-Imperv   N-Perv     S-Imperv   S-Perv     PctZero    RouteTo    PctRouted 
;;-------------- ---------- ---------- ---------- ---------- ---------- ---------- ----------
EX-143           0.100000   0.001000   0.050000   0.050000   25.000000  OUTLET    
EX-144           0.100000   0.001000   0.050000   0.050000   25.000000  OUTLET    
EX-145           0.100000   0.001000   0.050000   0.050000   25.000000  OUTLET    
EX-146           0.100000   0.001000   0.050000   0.050000   25.000000  OUTLET    
EX-147           0.100000   0.001000   0.050000   0.050000   25.000000  OUTLET    
EX-147_1         0.100000   0.001000   0.050000   0.050000   25.000000  OUTLET    
EX-148           0.100000   0.001000   0.050000   0.050000   25.000000  OUTLET    
EX-15            0.100000   0.001000   0.050000   0.050000   25.000000  OUTLET    
PROJ_100         0.100000   0.001000   0.050000   0.050000   25.000000  OUTLET    
PROJ_101         0.100000   0.001000   0.050000   0.050000   25.000000  OUTLET    
PROJ_102         0.100000   0.001000   0.050000   0.050000   25.000000  OUTLET    
PROJ_103         0.100000   0.001000   0.050000   0.050000   25.000000  OUTLET    
PROJ_106         0.100000   0.001000   0.050000   0.050000   25.000000  OUTLET    
PROJ_107-1       0.100000   0.001000   0.050000   0.050000   25.000000  OUTLET    
PROJ_107-2       0.100000   0.001000   0.050000   0.050000   25.000000  OUTLET    
PROJ_107-3       0.100000   0.001000   0.050000   0.050000   25.000000  OUTLET    
PROJ_108-1       0.100000   0.001000   0.050000   0.050000   25.000000  OUTLET    
PROJ_108-2       0.100000   0.001000   0.050000   0.050000   25.000000  OUTLET    
PROJ_109         0.100000   0.001000   0.050000   0.050000   25.000000  OUTLET    
PROJ_110-1       0.100000   0.001000   0.050000   0.050000   25.000000  OUTLET    
PROJ_201         0.100000   0.001000   0.050000   0.050000   25.000000  OUTLET    
PROJ_204         0.100000   0.001000   0.050000   0.050000   25.000000  OUTLET    
PROJ_43          0.100000   0.001000   0.050000   0.050000   25.000000  OUTLET    
PROJ_44          0.100000   0.001000   0.050000   0.050000   25.000000  OUTLET    
PROJ_45          0.100000   0.001000   0.050000   0.050000   25.000000  OUTLET    
PROJ_62          0.100000   0.001000   0.050000   0.050000   25.000000  OUTLET    
PROJ_63          0.100000   0.001000   0.050000   0.050000   25.000000  OUTLET    
PROJ_64          0.100000   0.001000   0.050000   0.050000   25.000000  OUTLET    
PROJ_65          0.100000   0.001000   0.050000   0.050000   25.000000  OUTLET    
PROJ_66          0.100000   0.001000   0.050000   0.050000   25.000000  OUTLET    
PROJ_67          0.100000   0.001000   0.050000   0.050000   25.000000  OUTLET    
PROJ_68          0.100000   0.001000   0.050000   0.050000   25.000000  OUTLET    
PROJ_69          0.100000   0.001000   0.050000   0.050000   25.000000  OUTLET    
PROJ_70          0.100000   0.001000   0.050000   0.050000   25.000000  OUTLET    
PROJ_71          0.100000   0.001000   0.050000   0.050000   25.000000  OUTLET    
PROJ_72          0.100000   0.001000   0.050000   0.050000   25.000000  OUTLET    
PROJ_72_2        0.100000   0.001000   0.050000   0.050000   25.000000  OUTLET    
PROJ_75          0.100000   0.001000   0.050000   0.050000   25.000000  OUTLET    
PROJ_75-2        0.100000   0.001000   0.050000   0.050000   25.000000  OUTLET    
PROJ_77          0.100000   0.001000   0.050000   0.050000   25.000000  OUTLET    
PROJ_78          0.100000   0.001000   0.050000   0.050000   25.000000  OUTLET    
PROJ_79          0.100000   0.001000   0.050000   0.050000   25.000000  OUTLET    
PROJ_81          0.100000   0.001000   0.050000   0.050000   25.000000  OUTLET    
PROJ_82          0.100000   0.001000   0.050000   0.050000   25.000000  OUTLET    
PROJ_83          0.100000   0.001000   0.050000   0.050000   25.000000  OUTLET    
PROJ_85          0.100000   0.001000   0.050000   0.050000   25.000000  OUTLET    
PROJ_86          0.100000   0.001000   0.050000   0.050000   25.000000  OUTLET    
PROJ_88          0.100000   0.001000   0.050000   0.050000   25.000000  OUTLET    
PROJ_89          0.100000   0.001000   0.050000   0.050000   25.000000  OUTLET    
PROJ_90          0.100000   0.001000   0.050000   0.050000   25.000000  OUTLET    
PROJ_91          0.100000   0.001000   0.050000   0.050000   25.000000  OUTLET    
PROJ_93          0.100000   0.001000   0.050000   0.050000   25.000000  OUTLET    
PROJ_93-1        0.100000   0.001000   0.050000   0.050000   25.000000  OUTLET    
PROJ_94          0.100000   0.001000   0.050000   0.050000   25.000000  OUTLET    
PROJ_95-2        0.100000   0.001000   0.050000   0.050000   25.000000  OUTLET    
PROJ_95-3        0.100000   0.001000   0.050000   0.050000   25.000000  OUTLET    
PROJ_95-4        0.100000   0.001000   0.050000   0.050000   25.000000  OUTLET    
PROJ_96          0.100000   0.001000   0.050000   0.050000   25.000000  OUTLET    
PROJ_97          0.100000   0.001000   0.050000   0.050000   25.000000  OUTLET    
PROJ_98-3        0.100000   0.001000   0.050000   0.050000   25.000000  OUTLET    
PROJ_99          0.100000   0.001000   0.050000   0.050000   25.000000  OUTLET    
PROPOSE_258B     0.100000   0.001000   0.050000   0.050000   25.000000  OUTLET    
PROPOSE_ST203B   0.100000   0.001000   0.050000   0.050000   25.000000  OUTLET    
PROPOSE_ST203C   0.100000   0.001000   0.050000   0.050000   25.000000  OUTLET    
PROPOSE_ST208D   0.100000   0.001000   0.050000   0.050000   25.000000  OUTLET    

[INFILTRATION]
;;Subcatchment   CurveNum              DryTime   
;;-------------- ---------- ---------- ----------
EX-143           87.000000  0.500000   75.000000 
EX-144           87.000000  0.500000   75.000000 
EX-145           87.000000  0.500000   75.000000 
EX-146           87.000000  0.500000   75.000000 
EX-147           87.000000  0.500000   75.000000 
EX-147_1         88.100000  0.500000   75.000000 
EX-148           84.000000  0.500000   75.000000 
EX-15            84.650000  0.500000   75.000000 
PROJ_100         93.000000  0.500000   75.000000 
PROJ_101         93.000000  0.500000   75.000000 
PROJ_102         85.000000  0.500000   75.000000 
PROJ_103         84.500000  0.500000   75.000000 
PROJ_106         95.300000  0.500000   75.000000 
PROJ_107-1       81.800000  0.500000   75.000000 
PROJ_107-2       81.800000  0.500000   75.000000 
PROJ_107-3       81.800000  0.500000   75.000000 
PROJ_108-1       93.000000  0.500000   75.000000 
PROJ_108-2       95.300000  0.500000   75.000000 
PROJ_109         93.000000  0.500000   75.000000 
PROJ_110-1       85.000000  0.500000   75.000000 
PROJ_201         93.000000  0.500000   75.000000 
PROJ_204         95.300000  0.500000   75.000000 
PROJ_43          95.300000  0.500000   75.000000 
PROJ_44          95.300000  0.500000   75.000000 
PROJ_45          93.000000  0.500000   75.000000 
PROJ_62          95.300000  0.500000   75.000000 
PROJ_63          80.000000  0.500000   75.000000 
PROJ_64          95.300000  0.500000   75.000000 
PROJ_65          85.000000  0.500000   75.000000 
PROJ_66          80.000000  0.500000   75.000000 
PROJ_67          95.300000  0.500000   75.000000 
PROJ_68          79.900000  0.500000   75.000000 
PROJ_69          95.300000  0.500000   75.000000 
PROJ_70          95.300000  0.500000   75.000000 
PROJ_71          95.300000  0.500000   75.000000 
PROJ_72          85.000000  0.500000   75.000000 
PROJ_72_2        93.000000  0.500000   75.000000 
PROJ_75          95.300000  0.500000   75.000000 
PROJ_75-2        95.300000  0.500000   75.000000 
PROJ_77          95.300000  0.500000   75.000000 
PROJ_78          95.300000  0.500000   75.000000 
PROJ_79          95.300000  0.500000   75.000000 
PROJ_81          95.300000  0.500000   75.000000 
PROJ_82          95.300000  0.500000   75.000000 
PROJ_83          95.300000  0.500000   75.000000 
PROJ_85          95.300000  0.500000   75.000000 
PROJ_86          95.300000  0.500000   75.000000 
PROJ_88          95.300000  0.500000   75.000000 
PROJ_89          85.000000  0.500000   75.000000 
PROJ_90          95.300000  0.500000   75.000000 
PROJ_91          93.000000  0.500000   75.000000 
PROJ_93          95.300000  0.500000   75.000000 
PROJ_93-1        93.000000  0.500000   75.000000 
PROJ_94          95.300000  0.500000   75.000000 
PROJ_95-2        80.700000  0.500000   75.000000 
PROJ_95-3        80.700000  0.500000   75.000000 
PROJ_95-4        79.400000  0.500000   75.000000 
PROJ_96          85.000000  0.500000   75.000000 
PROJ_97          95.300000  0.500000   75.000000 
PROJ_98-3        89.600000  0.500000   75.000000 
PROJ_99          93.000000  0.500000   75.000000 
PROPOSE_258B     80.000000  0.500000   75.000000 
PROPOSE_ST203B   85.400000  0.500000   75.000000 
PROPOSE_ST203C   85.400000  0.500000   75.000000 
PROPOSE_ST208D   3.0        0.5        4         

[JUNCTIONS]
;;Name           Elevation  MaxDepth   InitDepth  SurDepth   Aponded   
;;-------------- ---------- ---------- ---------- ---------- ----------
CB29             900.790000 4.220000   0.000000   0.000000   5000.000000
CB30             901.010000 4.000000   0.000000   0.000000   5000.000000
CB31             900.680000 3.000000   0.000000   0.000000   1000.000000
CB32             901.240000 4.000000   0.000000   0.000000   2000.000000
CB33             901.240000 4.000000   0.000000   0.000000   5000.000000
CB34             899.750000 4.000000   0.000000   0.000000   5000.000000
CB35             900.500000 4.000000   0.000000   0.000000   5000.000000
CB36             900.570000 4.000000   0.000000   0.000000   5000.000000
CB37             899.620000 4.950000   0.000000   0.000000   5000.000000
CB38             900.000000 4.000000   0.000000   0.000000   5000.000000
CB39             899.000000 4.000000   0.000000   0.000000   5000.000000
CB40             899.000000 4.000000   0.000000   0.000000   5000.000000
CB41             898.410000 5.900000   0.000000   0.000000   5000.000000
CB42             898.690000 5.620000   0.000000   0.000000   5000.000000
CB43             899.000000 4.000000   0.000000   0.000000   2000.000000
CB44             898.750000 4.000000   0.000000   0.000000   5000.000000
CB45             900.395000 2.605000   0.000000   0.000000   5000.000000
CB46             900.160000 4.000000   0.000000   0.000000   5000.000000
CB47             900.160000 4.000000   0.000000   0.000000   5000.000000
CB48             898.000000 4.000000   0.000000   0.000000   5000.000000
CB49             898.000000 4.000000   0.000000   0.000000   5000.000000
CS2              888.520000 13.910000  0.000000   0.000000   5000.000000
; New Junction
JCT-109          885.930000 22.000000  0.000000   100.000000 0.000000  
; New Junction
JCT-110          893.950000 26.050000  0.000000   150.000000 0.000000  
; New Junction
JCT-112          884.080000 17.350000  8.850000   0.000000   2000.000000
; New Junction
JCT-113          893.930000 21.070000  0.000000   150.000000 0.000000  
; New Junction
JCT-114          889.530000 12.970000  3.400000   0.000000   2000.000000
; New Junction
JCT-141          886.970000 11.000000  0.000000   100.000000 0.000000  
; New Junction
JCT-157          884.930000 14.070000  0.000000   0.000000   5000.000000
; New Junction
JCT-161          883.430000 66.570000  0.000000   0.000000   0.000000  
; New Junction
JCT-162          883.430000 66.570000  0.000000   0.000000   0.000000  
; New Junction
JCT-163          883.430000 86.570000  0.000000   0.000000   0.000000  
M23              897.650000 8.150000   0.000000   0.000000   5000.000000
M24              897.260000 8.890000   0.000000   0.000000   5000.000000
M25              896.940000 8.860000   0.000000   0.000000   5000.000000
M26              899.980000 4.520000   0.000000   0.000000   5000.000000
M27              896.650000 9.390000   0.000000   0.000000   5000.000000
M28              896.420000 10.200000  0.000000   0.000000   5000.000000
M29              896.240000 10.160000  0.000000   0.000000   5000.000000
M30              895.960000 9.400000   0.000000   0.000000   5000.000000
M32              895.650000 9.900000   0.000000   0.000000   5000.000000
M33              898.010000 8.240000   0.000000   0.000000   5000.000000
M34              895.470000 9.610000   0.000000   0.000000   5000.000000
M35              899.000000 4.000000   0.000000   0.000000   1000.000000
M36              895.280000 10.240000  0.000000   0.000000   5000.000000
M37              895.020000 10.720000  0.000000   0.000000   5000.000000
M38              894.810000 10.120000  0.000000   0.000000   5000.000000
M39              894.670000 10.460000  0.000000   0.000000   5000.000000
M40              896.730000 8.720000   0.000000   0.000000   5000.000000
; New Junction
PROPOSE_CB100    895.680000 5.250000   0.000000   0.000000   2000.000000
PROPOSE_CB28     901.050000 2.550000   0.000000   0.000000   3000.000000
; New Junction
PROPOSE_M200     894.850000 6.580000   0.000000   0.000000   5000.000000
PROPOSE_M22      896.160000 7.340000   0.000000   0.000000   1000.000000
; New Junction
PROPOSE_M300     895.190000 5.740000   0.000000   0.000000   2000.000000
; New Junction
ST-200           894.480000 7.600000   0.000000   0.000000   5000.000000
; New Junction
ST-201           894.300000 9.550000   0.000000   0.000000   5000.000000
ST-201A          898.310000 5.040000   0.000000   0.000000   5000.000000
ST-201B          898.100000 5.650000   0.000000   0.000000   5000.000000
; New Junction
ST-202           893.970000 12.640000  0.000000   0.000000   5000.000000
ST-202A          896.750000 8.680000   0.000000   0.000000   5000.000000
; New Junction
ST-203           893.800000 11.740000  0.000000   0.000000   5000.000000
; New Junction
ST-203A          899.810000 6.030000   0.000000   0.000000   1000.000000
; New Junction
ST-203B          901.030000 4.800000   0.000000   0.000000   5000.000000
ST-204           893.630000 12.110000  0.000000   0.000000   5000.000000
ST-204A          886.500000 18.060000  0.000000   150.000000 0.000000  
; New Junction
ST-204B          886.430000 8.400000   0.000000   0.000000   5000.000000
ST-204C          886.790000 8.070000   0.000000   0.000000   5000.000000
ST-205           893.480000 11.020000  0.000000   0.000000   5000.000000
ST-206           893.270000 13.450000  0.000000   0.000000   5000.000000
ST-207           893.110000 13.010000  0.000000   0.000000   5000.000000
ST-207A          898.130000 4.770000   0.000000   0.000000   5000.000000
ST-207B          896.710000 6.790000   0.000000   0.000000   5000.000000
ST-208           892.830000 11.780000  0.000000   0.000000   5000.000000
ST-208A          897.500000 6.610000   0.000000   0.000000   5000.000000
ST-208B          897.590000 4.840000   0.000000   0.000000   5000.000000
ST-208C          895.560000 8.550000   0.000000   0.000000   5000.000000
ST-208D          895.810000 6.840000   0.000000   0.000000   5000.000000
ST-209           892.510000 11.360000  0.000000   0.000000   5000.000000
ST-210           892.370000 11.500000  0.000000   0.000000   5000.000000
ST-211           892.210000 11.150000  0.000000   0.000000   5000.000000
ST-211A          896.360000 6.510000   0.000000   0.000000   5000.000000
ST-211B          896.800000 4.600000   0.000000   0.000000   5000.000000
ST-211C          894.260000 8.610000   0.000000   0.000000   5000.000000
ST-211D          894.700000 6.630000   0.000000   0.000000   5000.000000
ST-212           891.870000 11.870000  0.000000   0.000000   5000.000000
ST-212A          898.200000 5.050000   0.000000   0.000000   5000.000000
ST-212B          895.740000 7.510000   0.000000   0.000000   5000.000000
ST-212C          896.100000 6.600000   0.000000   0.000000   5000.000000
ST-213           891.720000 12.420000  0.000000   0.000000   5000.000000
; New Junction
ST-214           894.850000 10.260000  0.000000   0.000000   5000.000000
; New Junction
ST-214A          895.890000 6.810000   0.000000   0.000000   5000.000000
; New Junction
ST-215           895.900000 8.290000   0.000000   0.000000   1000.000000
ST-215A          896.300000 7.390000   0.000000   0.000000   5000.000000
ST-215B          896.880000 6.120000   0.000000   0.000000   1000.000000
ST-215C          896.740000 6.950000   0.000000   0.000000   5000.000000
ST-215D          897.100000 6.650000   0.000000   0.000000   5000.000000
ST-250           884.130000 20.770000  0.000000   0.000000   5000.000000
ST-251           893.110000 11.790000  0.000000   0.000000   5000.000000
ST-252           893.440000 10.820000  0.000000   0.000000   5000.000000
ST-253           893.860000 11.640000  0.000000   0.000000   5000.000000
ST-253A          895.900000 6.620000   0.000000   0.000000   5000.000000
; New Junction
ST-253B          895.300000 6.570000   0.000000   0.000000   2000.000000
ST-254           894.140000 11.930000  0.000000   0.000000   5000.000000
ST-254A          897.060000 9.040000   0.000000   0.000000   5000.000000
; New Junction
ST-255           894.560000 10.060000  0.000000   0.000000   2000.000000
; New Junction
ST-255A          896.740000 7.390000   0.000000   0.000000   2000.000000
ST-255B          897.200000 4.600000   0.000000   0.000000   5000.000000
; New Junction
ST-255C          895.360000 9.640000   0.000000   0.000000   2000.000000
ST-255D          895.900000 6.580000   0.000000   0.000000   5000.000000
ST-256           894.830000 12.790000  0.000000   0.000000   5000.000000
ST-256A          896.700000 4.580000   0.000000   0.000000   5000.000000
; New Junction
ST-256B          896.300000 6.420000   0.000000   0.000000   2000.000000
ST-257           895.580000 11.510000  0.000000   0.000000   5000.000000
; New Junction
ST-258           896.300000 11.730000  0.000000   0.000000   2000.000000
; New Junction
ST-258A          897.220000 10.310000  0.000000   0.000000   1000.000000
; New Junction
ST-258B          897.800000 4.600000   0.000000   0.000000   2000.000000
; New Junction
ST-258C          897.480000 10.050000  0.000000   0.000000   1000.000000
; New Junction
ST-258D          898.100000 4.570000   0.000000   0.000000   2000.000000

[OUTFALLS]
;;Name           Elevation  Type       Stage Data       Gated    Route To        
;;-------------- ---------- ---------- ---------------- -------- ----------------
; New Outfall
OFALL-11         891.550000 FREE                        NO                       
; New Outfall
OFALL-12         893.000000 FREE                        NO                       
; New Outfall
OFALL-3          885.900000 FIXED      904.430000       NO                       

[STORAGE]
;;Name           Elev.    MaxDepth   InitDepth  Shape      Curve Name/Params            N/A      Fevap    Psi      Ksat     IMD     
;;-------------- -------- ---------- ----------- ---------- ---------------------------- -------- --------          -------- --------
; New Storage
LIFT_STAT1       881.930000 25.000000  11.000000  TABULAR    LIFT-STATION1                0.000000 0.000000
; New Storage
POND_A1          884.930000 16.000000  8.000000   TABULAR    POND_A1                      0.000000 0.000000
; New Storage
POND_A2          895.930000 7.000000   0.000000   TABULAR    POND_A2                      0.000000 0.000000
; New Storage
POND_B           888.930000 9.000000   4.000000   TABULAR    POND_B                       0.000000 0.000000
; New Storage
POND_C           888.930000 9.000000   4.000000   TABULAR    POND_C                       0.000000 0.000000
; New Storage
POND_D           888.930000 9.000000   4.000000   TABULAR    POND_D                       0.000000 0.000000
; New Storage
POND_E           888.930000 9.000000   4.000000   TABULAR    POND_E                       0.000000 0.000000
; New Storage
POND_F           888.930000 5.000000   4.000000   TABULAR    POND_F                       0.000000 0.000000
; New Storage
ST-203LS         883.500000 20.000000  0.000000   TABULAR    32NDAVE_WETWELL              0.000000 0.000000
; New Storage
STOR-60          903.500000 4.000000   0.000000   TABULAR    CURVE-60                     0.000000 0.000000
; New Storage
STOR-61          904.200000 3.400000   0.000000   TABULAR    CURVE-61                     0.000000 0.000000
; New Storage
STOR-62          902.850000 2.700000   0.000000   TABULAR    CURVE-62                     0.000000 0.000000
; control structure
STOR-83          886.130000 15.000000  0.000000   TABULAR    CONTROL_STRC                 0.000000 0.000000
; New Storage