[OPTIONS]
;Option and Files Scenario Set: BASE
FLOW_UNITS		GPM
INFILTRATION		HORTON
FLOW_ROUTING		DYNWAVE
LINK_OFFSETS		DEPTH
MIN_SLOPE		0.000000
ALLOW_PONDING		NO
SKIP_STEADY_STATE 	NO
IGNORE_RAINFALL		NO
IGNORE_SNOWMELT		NO
IGNORE_GROUNDWATER	NO
IGNORE_QUALITY		NO

START_DATE		01/01/2002
START_TIME		00:00:00
REPORT_START_DATE	01/01/2002
REPORT_START_TIME	00:00
END_DATE		01/01/2002
END_TIME		72:00:00
SWEEP_START		01/01
SWEEP_END		12/31
DRY_DAYS		5.000000
REPORT_STEP		00:05:00
WET_STEP		01:00:00
DRY_STEP		23:00:00
ROUTING_STEP		300

INERTIAL_DAMPING	NONE
NORMAL_FLOW_LIMITED	BOTH
FORCE_MAIN_EQUATION	H-W
VARIABLE_STEP		0.750000
LENGTHENING_STEP	0
MIN_SURFAREA		0.000000
MINIMUM_STEP		0.5


[FILES]

[RAINGAGES]
RG_SEWER_	INTENSITY	0.250000	1.000000	TIMESERIES	-		
RG_SEWER_5yr_Design	INTENSITY	0.250000	1.000000	TIMESERIES	5yr_Design		
UH_SEWER_FUTURE	INTENSITY	1.000000	1.000000	FILE	-	-	IN

[HYDROGRAPHS]
; 
UH_SEWER_FUTURE	RG_SEWER_5YR_DESIGN
UH_SEWER_FUTURE	ALL	Short	0.007200	1.100000	4.700000	0.000000	0.000000	0.000000
UH_SEWER_FUTURE	ALL	Medium	0.018000	2.600000	6.000000	0.000000	0.000000	0.000000
UH_SEWER_FUTURE	ALL	Long	0.034800	18.000000	4.400000	0.000000	0.000000	0.000000

[TEMPERATURE]

[ADJUSTMENTS]

[SUBCATCHMENTS]
SC_SEWER_10	RG_SEWER_5YR_DESIGN	10	3.500000	0.000000	762.300000	1.000000	0.000000
SC_SEWER_10A-MH001	RG_SEWER_5YR_DESIGN	10A-MH001	2.000000	0.000000	435.600000	1.000000	0.000000
SC_SEWER_10A-MH002	RG_SEWER_5YR_DESIGN	10A-MH002	2.000000	0.000000	435.600000	1.000000	0.000000
SC_SEWER_10A-MH002Z	RG_SEWER_5YR_DESIGN	10A-MH002Z	24.000000	0.000000	5227.200000	1.000000	0.000000
SC_SEWER_10A-MH003	RG_SEWER_5YR_DESIGN	10A-MH003	2.000000	0.000000	435.600000	1.000000	0.000000
SC_SEWER_10A-MH003Z	RG_SEWER_5YR_DESIGN	10A-MH003Z	31.000000	0.000000	6751.800000	1.000000	0.000000
SC_SEWER_10A-MH004	RG_SEWER_5YR_DESIGN	10A-MH004	2.000000	0.000000	435.600000	1.000000	0.000000
SC_SEWER_10A-MH005	RG_SEWER_5YR_DESIGN	10A-MH005	2.000000	0.000000	435.600000	1.000000	0.000000
SC_SEWER_10A-MH006	RG_SEWER_5YR_DESIGN	10A-MH006	9.000000	0.000000	1960.200000	1.000000	0.000000
SC_SEWER_10A-MH007	RG_SEWER_5YR_DESIGN	10A-MH007	2.000000	0.000000	435.600000	1.000000	0.000000
SC_SEWER_10A-MH008	RG_SEWER_5YR_DESIGN	10A-MH008	2.000000	0.000000	435.600000	1.000000	0.000000
SC_SEWER_10A-MH009	RG_SEWER_	10A-MH009	2.000000	0.000000	1.000000	0.000000	0.000000
SC_SEWER_10B-MH001	RG_SEWER_5YR_DESIGN	10B-MH001	43.000000	0.000000	9365.400000	1.000000	0.000000
SC_SEWER_10B-MH002	RG_SEWER_5YR_DESIGN	10B-MH002	8.000000	0.000000	1742.400000	1.000000	0.000000
SC_SEWER_10B-MH003	RG_SEWER_5YR_DESIGN	10B-MH003	4.000000	0.000000	871.200000	1.000000	0.000000
SC_SEWER_10B-MH004	RG_SEWER_5YR_DESIGN	10B-MH004	4.000000	0.000000	871.200000	1.000000	0.000000
SC_SEWER_10B-MH005	RG_SEWER_5YR_DESIGN	10B-MH005	7.000000	0.000000	1524.600000	1.000000	0.000000
SC_SEWER_10B-MH006	RG_SEWER_5YR_DESIGN	10B-MH006	8.000000	0.000000	1742.400000	1.000000	0.000000
SC_SEWER_10B-MH007	RG_SEWER_5YR_DESIGN	10B-MH007	24.000000	0.000000	5227.200000	1.000000	0.000000
SC_SEWER_10C-LH001	RG_SEWER_5YR_DESIGN	10C-LH001	5.000000	0.000000	1089.000000	1.000000	0.000000
SC_SEWER_10C-LS001C	RG_SEWER_5YR_DESIGN	10C-LS001C	7.000000	0.000000	1524.600000	1.000000	0.000000
SC_SEWER_10C-MH001	RG_SEWER_5YR_DESIGN	10C-MH001	1.000000	0.000000	217.800000	1.000000	0.000000
SC_SEWER_10C-MH001Z	RG_SEWER_5YR_DESIGN	10C-MH001Z	13.000000	0.000000	2831.400000	1.000000	0.000000
SC_SEWER_10C-MH002	RG_SEWER_5YR_DESIGN	10C-MH002	8.000000	0.000000	1742.400000	1.000000	0.000000
SC_SEWER_10C-MH003	RG_SEWER_5YR_DESIGN	10C-MH003	7.000000	0.000000	1524.600000	1.000000	0.000000
SC_SEWER_10C-MH004	RG_SEWER_5YR_DESIGN	10C-MH004	22.000000	0.000000	4791.600000	1.000000	0.000000
SC_SEWER_10C-MH005	RG_SEWER_5YR_DESIGN	10C-MH005	7.000000	0.000000	1524.600000	1.000000	0.000000
SC_SEWER_10C-MH005Z	RG_SEWER_5YR_DESIGN	10C-MH005Z	9.000000	0.000000	1960.200000	1.000000	0.000000
SC_SEWER_10C-MH006	RG_SEWER_5YR_DESIGN	10C-MH006	1.000000	0.000000	217.800000	1.000000	0.000000
SC_SEWER_10C-MH006Z	RG_SEWER_5YR_DESIGN	10C-MH006Z	15.000000	0.000000	3267.000000	1.000000	0.000000
SC_SEWER_10C-PS001C	RG_SEWER_5YR_DESIGN	10C-PS001C	5.000000	0.000000	1089.000000	1.000000	0.000000
SC_SEWER_10D-MH001	RG_SEWER_5YR_DESIGN	10D-MH001	6.000000	0.000000	1306.800000	1.000000	0.000000
SC_SEWER_10D-MH002	RG_SEWER_5YR_DESIGN	10D-MH002	3.000000	0.000000	653.400000	1.000000	0.000000
SC_SEWER_10D-MH003	RG_SEWER_5YR_DESIGN	10D-MH003	1.000000	0.000000	217.800000	1.000000	0.000000
SC_SEWER_10D-MH004	RG_SEWER_5YR_DESIGN	10D-MH004	1.000000	0.000000	217.800000	1.000000	0.000000
SC_SEWER_10D-MH005	RG_SEWER_5YR_DESIGN	10D-MH005	1.000000	0.000000	217.800000	1.000000	0.000000
SC_SEWER_10D-MH006	RG_SEWER_5YR_DESIGN	10D-MH006	2.000000	0.000000	435.600000	1.000000	0.000000
SC_SEWER_10D-MH007	RG_SEWER_5YR_DESIGN	10D-MH007	1.000000	0.000000	217.800000	1.000000	0.000000
SC_SEWER_10D-MH008	RG_SEWER_5YR_DESIGN	10D-MH008	2.000000	0.000000	435.600000	1.000000	0.000000
SC_SEWER_10D-MH009	RG_SEWER_5YR_DESIGN	10D-MH009	4.000000	0.000000	871.200000	1.000000	0.000000
SC_SEWER_10D-MH010	RG_SEWER_5YR_DESIGN	10D-MH010	1.000000	0.000000	217.800000	1.000000	0.000000
SC_SEWER_10D-MH011	RG_SEWER_5YR_DESIGN	10D-MH011	1.000000	0.000000	217.800000	1.000000	0.000000
SC_SEWER_10D-MH012	RG_SEWER_5YR_DESIGN	10D-MH012	9.000000	0.000000	1960.200000	1.000000	0.000000
SC_SEWER_10D-MH013	RG_SEWER_5YR_DESIGN	10D-MH013	4.000000	0.000000	871.200000	1.000000	0.000000
SC_SEWER_10D-MH014	RG_SEWER_5YR_DESIGN	10D-MH014	3.000000	0.000000	653.400000	1.000000	0.000000
SC_SEWER_10D-MH015	RG_SEWER_5YR_DESIGN	10D-MH015	1.000000	0.000000	217.800000	1.000000	0.000000
SC_SEWER_10D-MH016	RG_SEWER_5YR_DESIGN	10D-MH016	29.000000	0.000000	6316.200000	1.000000	0.000000
SC_SEWER_10D-MH017	RG_SEWER_5YR_DESIGN	10D-MH017	1.000000	0.000000	217.800000	1.000000	0.000000
SC_SEWER_10D-MH018	RG_SEWER_5YR_DESIGN	10D-MH018	2.000000	0.000000	435.600000	1.000000	0.000000
SC_SEWER_10D-MH019	RG_SEWER_5YR_DESIGN	10D-MH019	2.000000	0.000000	435.600000	1.000000	0.000000
SC_SEWER_10D-MH020	RG_SEWER_5YR_DESIGN	10D-MH020	5.000000	0.000000	1089.000000	1.000000	0.000000
SC_SEWER_10D-MH021	RG_SEWER_5YR_DESIGN	10D-MH021	4.000000	0.000000	871.200000	1.000000	0.000000
SC_SEWER_10D-MH022	RG_SEWER_5YR_DESIGN	10D-MH022	4.000000	0.000000	871.200000	1.000000	0.000000
SC_SEWER_10D-MH023	RG_SEWER_5YR_DESIGN	10D-MH023	3.000000	0.000000	653.400000	1.000000	0.000000
SC_SEWER_10D-MH024	RG_SEWER_5YR_DESIGN	10D-MH024	2.000000	0.000000	435.600000	1.000000	0.000000
SC_SEWER_10D-MH025Z	RG_SEWER_5YR_DESIGN	10D-MH025Z	1.000000	0.000000	217.800000	1.000000	0.000000
SC_SEWER_10D-MH027	RG_SEWER_5YR_DESIGN	10D-MH027	3.000000	0.000000	653.400000	1.000000	0.000000
SC_SEWER_10D-MH028	RG_SEWER_5YR_DESIGN	10D-MH028	1.000000	0.000000	217.800000	1.000000	0.000000
SC_SEWER_10D-MH029	RG_SEWER_5YR_DESIGN	10D-MH029	1.000000	0.000000	217.800000	1.000000	0.000000
SC_SEWER_10D-MH030	RG_SEWER_5YR_DESIGN	10D-MH030	1.000000	0.000000	217.800000	1.000000	0.000000
SC_SEWER_10D-MH031	RG_SEWER_5YR_DESIGN	10D-MH031	4.000000	0.000000	871.200000	1.000000	0.000000
SC_SEWER_10D-MH032	RG_SEWER_5YR_DESIGN	10D-MH032	25.000000	0.000000	5445.000000	1.000000	0.000000
SC_SEWER_10D-MH033	RG_SEWER_5YR_DESIGN	10D-MH033	14.000000	0.000000	3049.200000	1.000000	0.000000
SC_SEWER_10D-MH034	RG_SEWER_5YR_DESIGN	10D-MH034	10.000000	0.000000	2178.000000	1.000000	0.000000
SC_SEWER_10D-MH035	RG_SEWER_5YR_DESIGN	10D-MH035	3.000000	0.000000	653.400000	1.000000	0.000000
SC_SEWER_10D-MH036	RG_SEWER_5YR_DESIGN	10D-MH036	7.000000	0.000000	1524.600000	1.000000	0.000000
SC_SEWER_10D-MH037	RG_SEWER_5YR_DESIGN	10D-MH037	2.000000	0.000000	435.600000	1.000000	0.000000
SC_SEWER_10D-MH038	RG_SEWER_5YR_DESIGN	10D-MH038	4.000000	0.000000	871.200000	1.000000	0.000000
SC_SEWER_10D-MH039	RG_SEWER_5YR_DESIGN	10D-MH039	8.000000	0.000000	1742.400000	1.000000	0.000000
SC_SEWER_10D-MH040	RG_SEWER_5YR_DESIGN	10D-MH040	5.000000	0.000000	1089.000000	1.000000	0.000000
SC_SEWER_10D-MH041	RG_SEWER_5YR_DESIGN	10D-MH041	4.000000	0.000000	871.200000	1.000000	0.000000
SC_SEWER_10D-MH042	RG_SEWER_5YR_DESIGN	10D-MH042	1.000000	0.000000	217.800000	1.000000	0.000000
SC_SEWER_10D-MH044	RG_SEWER_5YR_DESIGN	10D-MH044	3.000000	0.000000	653.400000	1.000000	0.000000
SC_SEWER_10D-MH045	RG_SEWER_5YR_DESIGN	10D-MH045	2.000000	0.000000	435.600000	1.000000	0.000000
SC_SEWER_10D-MH046	RG_SEWER_5YR_DESIGN	10D-MH046	3.000000	0.000000	653.400000	1.000000	0.000000
SC_SEWER_10D-MH046Z	RG_SEWER_5YR_DESIGN	10D-MH046Z	1.000000	0.000000	217.800000	1.000000	0.000000
SC_SEWER_10D-MH047	RG_SEWER_5YR_DESIGN	10D-MH047	4.000000	0.000000	871.200000	1.000000	0.000000
SC_SEWER_10D-MH048	RG_SEWER_5YR_DESIGN	10D-MH048	3.000000	0.000000	653.400000	1.000000	0.000000
SC_SEWER_10D-MH049	RG_SEWER_5YR_DESIGN	10D-MH049	2.000000	0.000000	435.600000	1.000000	0.000000
SC_SEWER_10D-MH050	RG_SEWER_5YR_DESIGN	10D-MH050	4.000000	0.000000	871.200000	1.000000	0.000000
SC_SEWER_10D-MH051	RG_SEWER_5YR_DESIGN	10D-MH051	4.000000	0.000000	871.200000	1.000000	0.000000
SC_SEWER_10D-MH052	RG_SEWER_5YR_DESIGN	10D-MH052	2.000000	0.000000	435.600000	1.000000	0.000000
SC_SEWER_10D-MH053	RG_SEWER_5YR_DESIGN	10D-MH053	4.000000	0.000000	871.200000	1.000000	0.000000
SC_SEWER_10D-MH054	RG_SEWER_5YR_DESIGN	10D-MH054	4.000000	0.000000	871.200000	1.000000	0.000000
SC_SEWER_10E-LH001	RG_SEWER_5YR_DESIGN	10E-LH001	4.000000	0.000000	871.200000	1.000000	0.000000
SC_SEWER_10E-LH002	RG_SEWER_5YR_DESIGN	10E-LH002	2.000000	0.000000	435.600000	1.000000	0.000000
SC_SEWER_10E-LH003	RG_SEWER_5YR_DESIGN	10E-LH003	2.000000	0.000000	435.600000	1.000000	0.000000
SC_SEWER_10E-MH001	RG_SEWER_5YR_DESIGN	10E-MH001	1.000000	0.000000	217.800000	1.000000	0.000000
SC_SEWER_10E-MH002	RG_SEWER_5YR_DESIGN	10E-MH002	5.000000	0.000000	1089.000000	1.000000	0.000000
SC_SEWER_10E-MH003	RG_SEWER_5YR_DESIGN	10E-MH003	3.000000	0.000000	653.400000	1.000000	0.000000
SC_SEWER_10E-MH004	RG_SEWER_5YR_DESIGN	10E-MH004	3.000000	0.000000	653.400000	1.000000	0.000000
SC_SEWER_10E-MH005	RG_SEWER_5YR_DESIGN	10E-MH005	2.000000	0.000000	435.600000	1.000000	0.000000
SC_SEWER_10E-MH006Z	RG_SEWER_5YR_DESIGN	10E-MH006Z	1.000000	0.000000	217.800000	1.000000	0.000000
SC_SEWER_10E-MH007	RG_SEWER_5YR_DESIGN	10E-MH007	2.000000	0.000000	435.600000	1.000000	0.000000
SC_SEWER_10E-MH008	RG_SEWER_5YR_DESIGN	10E-MH008	3.000000	0.000000	653.400000	1.000000	0.000000
SC_SEWER_10E-MH009	RG_SEWER_5YR_DESIGN	10E-MH009	4.000000	0.000000	871.200000	1.000000	0.000000
SC_SEWER_10E-MH010	RG_SEWER_5YR_DESIGN	10E-MH010	2.000000	0.000000	435.600000	1.000000	0.000000
SC_SEWER_10E-MH010Z	RG_SEWER_5YR_DESIGN	10E-MH010Z	3.000000	0.000000	653.400000	1.000000	0.000000
SC_SEWER_10E-MH011	RG_SEWER_5YR_DESIGN	10E-MH011	3.000000	0.000000	653.400000	1.000000	0.000000
SC_SEWER_10E-MH012	RG_SEWER_5YR_DESIGN	10E-MH012	3.000000	0.000000	653.400000	1.000000	0.000000
SC_SEWER_10E-MH013	RG_SEWER_5YR_DESIGN	10E-MH013	3.000000	0.000000	653.400000	1.000000	0.000000
SC_SEWER_10E-MH014	RG_SEWER_5YR_DESIGN	10E-MH014	3.000000	0.000000	653.400000	1.000000	0.000000
SC_SEWER_10E-MH015	RG_SEWER_5YR_DESIGN	10E-MH015	3.000000	0.000000	653.400000	1.000000	0.000000
SC_SEWER_10E-MH016	RG_SEWER_5YR_DESIGN	10E-MH016	5.000000	0.000000	1089.000000	1.000000	0.000000
SC_SEWER_10E-MH018	RG_SEWER_5YR_DESIGN	10E-MH018	2.000000	0.000000	435.600000	1.000000	0.000000
SC_SEWER_10E-MH019	RG_SEWER_5YR_DESIGN	10E-MH019	2.000000	0.000000	435.600000	1.000000	0.000000
SC_SEWER_10E-MH020	RG_SEWER_5YR_DESIGN	10E-MH020	3.000000	0.000000	653.400000	1.000000	0.000000
SC_SEWER_10E-MH021	RG_SEWER_5YR_DESIGN	10E-MH021	1.000000	0.000000	217.800000	1.000000	0.000000
SC_SEWER_10E-MH022	RG_SEWER_5YR_DESIGN	10E-MH022	2.000000	0.000000	435.600000	1.000000	0.000000
SC_SEWER_10E-MH023	RG_SEWER_5YR_DESIGN	10E-MH023	2.000000	0.000000	435.600000	1.000000	0.000000
SC_SEWER_10E-MH024	RG_SEWER_5YR_DESIGN	10E-MH024	1.000000	0.000000	217.800000	1.000000	0.000000
SC_SEWER_10E-MH025	RG_SEWER_5YR_DESIGN	10E-MH025	1.000000	0.000000	217.800000	1.000000	0.000000
SC_SEWER_10E-MH026	RG_SEWER_5YR_DESIGN	10E-MH026	2.000000	0.000000	435.600000	1.000000	0.000000
SC_SEWER_10E-MH027	RG_SEWER_5YR_DESIGN	10E-MH027	3.000000	0.000000	653.400000	1.000000	0.000000
SC_SEWER_10E-MH028	RG_SEWER_5YR_DESIGN	10E-MH028	4.000000	0.000000	871.200000	1.000000	0.000000
SC_SEWER_10E-MH029	RG_SEWER_5YR_DESIGN	10E-MH029	3.000000	0.000000	653.400000	1.000000	0.000000
SC_SEWER_10E-MH030	RG_SEWER_5YR_DESIGN	10E-MH030	2.000000	0.000000	435.600000	1.000000	0.000000
SC_SEWER_10E-MH031	RG_SEWER_5YR_DESIGN	10E-MH031	2.000000	0.000000	435.600000	1.000000	0.000000
SC_SEWER_10E-MH032	RG_SEWER_5YR_DESIGN	10E-MH032	2.000000	0.000000	435.600000	1.000000	0.000000
SC_SEWER_10E-MH033	RG_SEWER_5YR_DESIGN	10E-MH033	2.000000	0.000000	435.600000	1.000000	0.000000
SC_SEWER_10E-MH034	RG_SEWER_5YR_DESIGN	10E-MH034	2.000000	0.000000	435.600000	1.000000	0.000000
SC_SEWER_10E-MH035	RG_SEWER_5YR_DESIGN	10E-MH035	4.000000	0.000000	871.200000	1.000000	0.000000
SC_SEWER_10E-MH036	RG_SEWER_5YR_DESIGN	10E-MH036	2.000000	0.000000	435.600000	1.000000	0.000000
SC_SEWER_10E-MH037	RG_SEWER_5YR_DESIGN	10E-MH037	2.000000	0.000000	435.600000	1.000000	0.000000
SC_SEWER_10E-MH037Z	RG_SEWER_5YR_DESIGN	10E-MH037Z	2.000000	0.000000	435.600000	1.000000	0.000000
SC_SEWER_10E-MH038	RG_SEWER_5YR_DESIGN	10E-MH038	2.000000	0.000000	435.600000	1.000000	0.000000
SC_SEWER_10E-MH039	RG_SEWER_5YR_DESIGN	10E-MH039	3.000000	0.000000	653.400000	1.000000	0.000000
SC_SEWER_10E-MH040	RG_SEWER_5YR_DESIGN	10E-MH040	2.000000	0.000000	435.600000	1.000000	0.000000
SC_SEWER_10E-MH041	RG_SEWER_5YR_DESIGN	10E-MH041	1.000000	0.000000	217.800000	1.000000	0.000000
SC_SEWER_10E-MH041Z	RG_SEWER_5YR_DESIGN	10E-MH041Z	1.000000	0.000000	217.800000	1.000000	0.000000
SC_SEWER_10E-MH042	RG_SEWER_5YR_DESIGN	10E-MH042	3.000000	0.000000	653.400000	1.000000	0.000000
SC_SEWER_10E-MH043	RG_SEWER_5YR_DESIGN	10E-MH043	9.000000	0.000000	1960.200000	1.000000	0.000000
SC_SEWER_10E-MH044	RG_SEWER_5YR_DESIGN	10E-MH044	2.000000	0.000000	435.600000	1.000000	0.000000
SC_SEWER_10E-MH044Z	RG_SEWER_5YR_DESIGN	10E-MH044Z	2.000000	0.000000	435.600000	1.000000	0.000000
SC_SEWER_10E-MH045	RG_SEWER_5YR_DESIGN	10E-MH045	1.000000	0.000000	217.800000	1.000000	0.000000
SC_SEWER_10E-MH045Z	RG_SEWER_5YR_DESIGN	10E-MH045Z	15.000000	0.000000	3267.000000	1.000000	0.000000
SC_SEWER_10E-MH046	RG_SEWER_5YR_DESIGN	10E-MH046	1.000000	0.000000	217.800000	1.000000	0.000000
SC_SEWER_10F-MH001	RG_SEWER_5YR_DESIGN	10F-MH001	1.000000	0.000000	217.800000	1.000000	0.000000
SC_SEWER_10F-MH002	RG_SEWER_5YR_DESIGN	10F-MH002	1.000000	0.000000	217.800000	1.000000	0.000000
SC_SEWER_10F-MH003	RG_SEWER_5YR_DESIGN	10F-MH003	2.000000	0.000000	435.600000	1.000000	0.000000
SC_SEWER_10F-MH004	RG_SEWER_5YR_DESIGN	10F-MH004	1.000000	0.000000	217.800000	1.000000	0.000000
SC_SEWER_10F-MH005	RG_SEWER_5YR_DESIGN	10F-MH005	1.000000	0.000000	217.800000	1.000000	0.000000
SC_SEWER_10F-MH007	RG_SEWER_5YR_DESIGN	10F-MH007	1.000000	0.000000	217.800000	1.000000	0.000000
SC_SEWER_10F-MH008	RG_SEWER_5YR_DESIGN	10F-MH008	2.000000	0.000000	435.600000	1.000000	0.000000
SC_SEWER_10F-MH009	RG_SEWER_5YR_DESIGN	10F-MH009	1.000000	0.000000	217.800000	1.000000	0.000000
SC_SEWER_10F-MH010	RG_SEWER_5YR_DESIGN	10F-MH010	1.000000	0.000000	217.800000	1.000000	0.000000
SC_SEWER_10F-MH011	RG_SEWER_5YR_DESIGN	10F-MH011	2.000000	0.000000	435.600000	1.000000	0.000000
SC_SEWER_10F-MH012	RG_SEWER_5YR_DESIGN	10F-MH012	5.000000	0.000000	1089.000000	1.000000	0.000000
SC_SEWER_10F-MH013	RG_SEWER_5YR_DESIGN	10F-MH013	6.000000	0.000000	1306.800000	1.000000	0.000000
SC_SEWER_10F-MH014	RG_SEWER_5YR_DESIGN	10F-MH014	1.000000	0.000000	217.800000	1.000000	0.000000
SC_SEWER_10F-MH015	RG_SEWER_5YR_DESIGN	10F-MH015	1.000000	0.000000	217.800000	1.000000	0.000000
SC_SEWER_10F-MH016	RG_SEWER_5YR_DESIGN	10F-MH016	3.000000	0.000000	653.400000	1.000000	0.000000
SC_SEWER_10F-MH016Z	RG_SEWER_5YR_DESIGN	10F-MH016Z	3.000000	0.000000	653.400000	1.000000	0.000000
SC_SEWER_10F-MH017	RG_SEWER_5YR_DESIGN	10F-MH017	2.000000	0.000000	435.600000	1.000000	0.000000
SC_SEWER_10F-MH018	RG_SEWER_5YR_DESIGN	10F-MH018	2.000000	0.000000	435.600000	1.000000	0.000000
SC_SEWER_10F-MH019	RG_SEWER_5YR_DESIGN	10F-MH019	2.000000	0.000000	435.600000	1.000000	0.000000
SC_SEWER_10F-MH020	RG_SEWER_5YR_DESIGN	10F-MH020	2.000000	0.000000	435.600000	1.000000	0.000000
SC_SEWER_10F-MH021	RG_SEWER_5YR_DESIGN	10F-MH021	2.000000	0.000000	435.600000	1.000000	0.000000
SC_SEWER_10F-MH022	RG_SEWER_5YR_DESIGN	10F-MH022	2.000000	0.000000	435.600000	1.000000	0.000000
SC_SEWER_10F-MH023	RG_SEWER_5YR_DESIGN	10F-MH023	4.000000	0.000000	871.200000	1.000000	0.000000
SC_SEWER_10F-MH024	RG_SEWER_5YR_DESIGN	10F-MH024	1.000000	0.000000	217.800000	1.000000	0.000000
SC_SEWER_10F-MH025	RG_SEWER_5YR_DESIGN	10F-MH025	1.000000	0.000000	217.800000	1.000000	0.000000
SC_SEWER_10F-MH026	RG_SEWER_5YR_DESIGN	10F-MH026	1.000000	0.000000	217.800000	1.000000	0.000000
SC_SEWER_10F-MH027	RG_SEWER_5YR_DESIGN	10F-MH027	1.000000	0.000000	217.800000	1.000000	0.000000
SC_SEWER_10F-MH028	RG_SEWER_5YR_DESIGN	10F-MH028	1.000000	0.000000	217.800000	1.000000	0.000000
SC_SEWER_10F-MH029	RG_SEWER_5YR_DESIGN	10F-MH029	1.000000	0.000000	217.800000	1.000000	0.000000
SC_SEWER_10F-MH030	RG_SEWER_5YR_DESIGN	10F-MH030	1.000000	0.000000	217.800000	1.000000	0.000000
SC_SEWER_10F-MH032	RG_SEWER_5YR_DESIGN	10F-MH032	1.000000	0.000000	217.800000	1.000000	0.000000
SC_SEWER_10F-MH033	RG_SEWER_5YR_DESIGN	10F-MH033	1.000000	0.000000	217.800000	1.000000	0.000000
SC_SEWER_10F-MH034	RG_SEWER_5YR_DESIGN	10F-MH034	1.000000	0.000000	217.800000	1.000000	0.000000
SC_SEWER_10F-MH035	RG_SEWER_5YR_DESIGN	10F-MH035	1.000000	0.000000	217.800000	1.000000	0.000000
SC_SEWER_10F-MH037	RG_SEWER_5YR_DESIGN	10F-MH037	2.000000	0.000000	435.600000	1.000000	0.000000
SC_SEWER_10F-MH038	RG_SEWER_5YR_DESIGN	10F-MH038	1.000000	0.000000	217.800000	1.000000	0.000000
SC_SEWER_10F-MH039	RG_SEWER_5YR_DESIGN	10F-MH039	1.000000	0.000000	217.800000	1.000000	0.000000
SC_SEWER_10F-MH040	RG_SEWER_5YR_DESIGN	10F-MH040	2.000000	0.000000	435.600000	1.000000	0.000000
SC_SEWER_10F-MH041	RG_SEWER_5YR_DESIGN	10F-MH041	1.000000	0.000000	217.800000	1.000000	0.000000
SC_SEWER_10F-MH042	RG_SEWER_5YR_DESIGN	10F-MH042	2.000000	0.000000	435.600000	1.000000	0.000000
SC_SEWER_10F-MH043	RG_SEWER_5YR_DESIGN	10F-MH043	1.000000	0.000000	217.800000	1.000000	0.000000
SC_SEWER_10F-MH044	RG_SEWER_5YR_DESIGN	10F-MH044	1.000000	0.000000	217.800000	1.000000	0.000000
SC_SEWER_10F-MH045	RG_SEWER_5YR_DESIGN	10F-MH045	1.000000	0.000000	217.800000	1.000000	0.000000
SC_SEWER_10F-MH046	RG_SEWER_5YR_DESIGN	10F-MH046	3.000000	0.000000	653.400000	1.000000	0.000000
SC_SEWER_10F-MH047	RG_SEWER_5YR_DESIGN	10F-MH047	1.000000	0.000000	217.800000	1.000000	0.000000
SC_SEWER_10F-MH048	RG_SEWER_5YR_DESIGN	10F-MH048	5.000000	0.000000	1089.000000	1.000000	0.000000
SC_SEWER_10F-MH049	RG_SEWER_5YR_DESIGN	10F-MH049	1.000000	0.000000	217.800000	1.000000	0.000000
SC_SEWER_10F-MH050	RG_SEWER_5YR_DESIGN	10F-MH050	1.000000	0.000000	217.800000	1.000000	0.000000
SC_SEWER_10F-MH051	RG_SEWER_5YR_DESIGN	10F-MH051	4.000000	0.000000	871.200000	1.000000	0.000000
SC_SEWER_10F-MH052	RG_SEWER_5YR_DESIGN	10F-MH052	17.000000	0.000000	3702.600000	1.000000	0.000000
SC_SEWER_10F-MH053	RG_SEWER_5YR_DESIGN	10F-MH053	13.000000	0.000000	2831.400000	1.000000	0.000000
SC_SEWER_10F-MH054	RG_SEWER_5YR_DESIGN	10F-MH054	1.000000	0.000000	217.800000	1.000000	0.000000
SC_SEWER_10F-MH055	RG_SEWER_5YR_DESIGN	10F-MH055	1.000000	0.000000	217.800000	1.000000	0.000000
SC_SEWER_10F-MH056	RG_SEWER_5YR_DESIGN	10F-MH056	1.000000	0.000000	217.800000	1.000000	0.000000
SC_SEWER_10F-MH057	RG_SEWER_5YR_DESIGN	10F-MH057	3.000000	0.000000	653.400000	1.000000	0.000000
SC_SEWER_10F-MH058	RG_SEWER_5YR_DESIGN	10F-MH058	4.000000	0.000000	871.200000	1.000000	0.000000
SC_SEWER_10F-MH059	RG_SEWER_5YR_DESIGN	10F-MH059	1.000000	0.000000	217.800000	1.000000	0.000000
SC_SEWER_10F-MH060	RG_SEWER_5YR_DESIGN	10F-MH060	1.000000	0.000000	217.800000	1.000000	0.000000
SC_SEWER_10F-MH061	RG_SEWER_5YR_DESIGN	10F-MH061	1.000000	0.000000	217.800000	1.000000	0.000000
SC_SEWER_10F-MH062	RG_SEWER_5YR_DESIGN	10F-MH062	1.000000	0.000000	217.800000	1.000000	0.000000
SC_SEWER_10F-MH066	RG_SEWER_5YR_DESIGN	10F-MH066	1.000000	0.000000	217.800000	1.000000	0.000000
SC_SEWER_10F-MH068	RG_SEWER_5YR_DESIGN	10F-MH068	6.000000	0.000000	1306.800000	1.000000	0.000000
SC_SEWER_10F-MH069	RG_SEWER_5YR_DESIGN	10F-MH069	1.000000	0.000000	217.800000	1.000000	0.000000
SC_SEWER_10F-MH070	RG_SEWER_5YR_DESIGN	10F-MH070	1.000000	0.000000	217.800000	1.000000	0.000000
SC_SEWER_10F-MH071	RG_SEWER_5YR_DESIGN	10F-MH071	1.000000	0.000000	217.800000	1.000000	0.000000
SC_SEWER_10F-MH072	RG_SEWER_5YR_DESIGN	10F-MH072	1.000000	0.000000	217.800000	1.000000	0.000000
SC_SEWER_10F-MH073	RG_SEWER_5YR_DESIGN	10F-MH073	14.000000	0.000000	3049.200000	1.000000	0.000000
SC_SEWER_10F-MH074	RG_SEWER_5YR_DESIGN	10F-MH074	11.000000	0.000000	2395.800000	1.000000	0.000000
SC_SEWER_10F-MH075	RG_SEWER_5YR_DESIGN	10F-MH075	7.000000	0.000000	1524.600000	1.000000	0.000000
SC_SEWER_10F-MH076	RG_SEWER_5YR_DESIGN	10F-MH076	7.000000	0.000000	1524.600000	1.000000	0.000000
SC_SEWER_10F-MH077	RG_SEWER_5YR_DESIGN	10F-MH077	2.000000	0.000000	435.600000	1.000000	0.000000
SC_SEWER_10F-MH078	RG_SEWER_5YR_DESIGN	10F-MH078	1.000000	0.000000	217.800000	1.000000	0.000000
SC_SEWER_10F-MH079	RG_SEWER_5YR_DESIGN	10F-MH079	8.000000	0.000000	1742.400000	1.000000	0.000000
SC_SEWER_10F-MH082	RG_SEWER_	10F-MH082	3.000000	0.000000	1.000000	0.000000	0.000000
SC_SEWER_10G-MH001	RG_SEWER_5YR_DESIGN	10G-MH001	7.000000	0.000000	1524.600000	1.000000	0.000000
SC_SEWER_10G-MH002	RG_SEWER_5YR_DESIGN	10G-MH002	19.000000	0.000000	4138.200000	1.000000	0.000000
SC_SEWER_10G-MH003	RG_SEWER_5YR_DESIGN	10G-MH003	17.000000	0.000000	3702.600000	1.000000	0.000000
SC_SEWER_10J-MH001	RG_SEWER_5YR_DESIGN	10J-MH001	3.500000	0.000000	762.300000	1.000000	0.000000
SC_SEWER_10J-MH002	RG_SEWER_5YR_DESIGN	10J-MH002	3.500000	0.000000	762.300000	1.000000	0.000000
SC_SEWER_10J-MH003	RG_SEWER_5YR_DESIGN	10J-MH003	3.500000	0.000000	762.300000	1.000000	0.000000
SC_SEWER_10J-MH004	RG_SEWER_5YR_DESIGN	10J-MH004	3.500000	0.000000	762.300000	1.000000	0.000000
SC_SEWER_10J-MH005	RG_SEWER_5YR_DESIGN	10J-MH005	3.500000	0.000000	762.300000	1.000000	0.000000
SC_SEWER_10J-MH006	RG_SEWER_5YR_DESIGN	10J-MH006	3.500000	0.000000	762.300000	1.000000	0.000000
SC_SEWER_10J-MH3T1	RG_SEWER_5YR_DESIGN	10J-MH3T1	3.500000	0.000000	1.000000	0.000000	0.000000
SC_SEWER_10J-MH3T2	RG_SEWER_5YR_DESIGN	10J-MH3T2	3.500000	0.000000	1.000000	0.000000	0.000000
SC_SEWER_10J-MH3T3	RG_SEWER_5YR_DESIGN	10J-MH3T3	3.500000	0.000000	1.000000	0.000000	0.000000
SC_SEWER_10J-MH3T4	RG_SEWER_5YR_DESIGN	10J-MH3T4	3.500000	0.000000	1.000000	0.000000	0.000000
SC_SEWER_10J-MH3T5	RG_SEWER_5YR_DESIGN	10J-MH3T5	3.500000	0.000000	1.000000	0.000000	0.000000
SC_SEWER_10J-MH3T6	RG_SEWER_5YR_DESIGN	10J-MH3T6	3.500000	0.000000	1.000000	0.000000	0.000000
SC_SEWER_10J-MH3T7	RG_SEWER_5YR_DESIGN	10J-MH3T7	3.500000	0.000000	1.000000	0.000000	0.000000
SC_SEWER_10J-MH3T8	RG_SEWER_5YR_DESIGN	10J-MH3T8	3.500000	0.000000	1.000000	0.000000	0.000000
SC_SEWER_10J-MH3T9	RG_SEWER_5YR_DESIGN	10J-MH3T9	3.500000	0.000000	1.000000	0.000000	0.000000
SC_SEWER_10J-MH3TA	RG_SEWER_5YR_DESIGN	10J-MH3TA	3.500000	0.000000	1.000000	0.000000	0.000000
SC_SEWER_10J-MH3TB	RG_SEWER_5YR_DESIGN	10J-MH3TB	3.500000	0.000000	1.000000	0.000000	0.000000
SC_SEWER_10J-MH3TC	RG_SEWER_5YR_DESIGN	10J-MH3TC	3.500000	0.000000	1.000000	0.000000	0.000000
SC_SEWER_10J-MH3TD	RG_SEWER_5YR_DESIGN	10J-MH3TD	3.500000	0.000000	1.000000	0.000000	0.000000
SC_SEWER_10J-MH3TE	RG_SEWER_5YR_DESIGN	10J-MH3TE	3.500000	0.000000	1.000000	0.000000	0.000000
SC_SEWER_10J-MH3TF	RG_SEWER_5YR_DESIGN	10J-MH3TF	3.500000	0.000000	1.000000	0.000000	0.000000
SC_SEWER_10J-MH3TG	RG_SEWER_5YR_DESIGN	10J-MH3TG	3.500000	0.000000	1.000000	0.000000	0.000000
SC_SEWER_10J-MH3TH	RG_SEWER_5YR_DESIGN	10J-MH3TH	3.500000	0.000000	1.000000	0.000000	0.000000
SC_SEWER_10J-MH3TI	RG_SEWER_5YR_DESIGN	10J-MH3TI	3.500000	0.000000	1.000000	0.000000	0.000000
SC_SEWER_10J-MH3TJ	RG_SEWER_5YR_DESIGN	10J-MH3TJ	3.500000	0.000000	1.000000	0.000000	0.000000
SC_SEWER_10J-MH3TK	RG_SEWER_5YR_DESIGN	10J-MH3TK	3.500000	0.000000	1.000000	0.000000	0.000000
SC_SEWER_10K-MH001	RG_SEWER_5YR_DESIGN	10K-MH001	3.500000	0.000000	762.300000	1.000000	0.000000
SC_SEWER_10K-MH002	RG_SEWER_5YR_DESIGN	10K-MH002	3.500000	0.000000	762.300000	1.000000	0.000000
SC_SEWER_10K-MH003	RG_SEWER_5YR_DESIGN	10K-MH003	3.500000	0.000000	762.300000	1.000000	0.000000
SC_SEWER_10K-MH004	RG_SEWER_5YR_DESIGN	10K-MH004	3.500000	0.000000	762.300000	1.000000	0.000000
SC_SEWER_10K-MH005	RG_SEWER_5YR_DESIGN	10K-MH005	3.500000	0.000000	762.300000	1.000000	0.000000
SC_SEWER_10K-MH006	RG_SEWER_5YR_DESIGN	10K-MH006	3.500000	0.000000	762.300000	1.000000	0.000000
SC_SEWER_10K-MH007	RG_SEWER_5YR_DESIGN	10K-MH007	3.500000	0.000000	762.300000	1.000000	0.000000
SC_SEWER_10L-MH001	RG_SEWER_5YR_DESIGN	10L-MH001	3.500000	0.000000	762.300000	1.000000	0.000000
SC_SEWER_10L-MH002	RG_SEWER_5YR_DESIGN	10L-MH002	3.500000	0.000000	762.300000	1.000000	0.000000
SC_SEWER_10L-MH003	RG_SEWER_5YR_DESIGN	10L-MH003	3.500000	0.000000	762.300000	1.000000	0.000000
SC_SEWER_10L-MH004	RG_SEWER_5YR_DESIGN	10L-MH004	3.500000	0.000000	762.300000	1.000000	0.000000
SC_SEWER_10L-MH005	RG_SEWER_5YR_DESIGN	10L-MH005	3.500000	0.000000	762.300000	1.000000	0.000000
SC_SEWER_10L-MH006	RG_SEWER_5YR_DESIGN	10L-MH006	3.500000	0.000000	762.300000	1.000000	0.000000
SC_SEWER_10L-MH007	RG_SEWER_5YR_DESIGN	10L-MH007	3.500000	0.000000	762.300000	1.000000	0.000000
SC_SEWER_10M-MH001	RG_SEWER_5YR_DESIGN	10M-MH001	3.500000	0.000000	762.300000	1.000000	0.000000
SC_SEWER_10M-MH002	RG_SEWER_5YR_DESIGN	10M-MH002	3.500000	0.000000	762.300000	1.000000	0.000000
SC_SEWER_10M-MH003	RG_SEWER_5YR_DESIGN	10M-MH003	3.500000	0.000000	762.300000	1.000000	0.000000
SC_SEWER_10M-MH004	RG_SEWER_5YR_DESIGN	10M-MH004	3.500000	0.000000	762.300000	1.000000	0.000000
SC_SEWER_10M-MH004Z	RG_SEWER_5YR_DESIGN	10M-MH004Z	3.500000	0.000000	762.300000	1.000000	0.000000
SC_SEWER_10M-MH005	RG_SEWER_5YR_DESIGN	10M-MH005	3.500000	0.000000	762.300000	1.000000	0.000000
SC_SEWER_11A-MH001	RG_SEWER_5YR_DESIGN	11A-MH001	4.000000	0.000000	871.200000	1.000000	0.000000
SC_SEWER_11A-MH002	RG_SEWER_5YR_DESIGN	11A-MH002	3.000000	0.000000	653.400000	1.000000	0.000000
SC_SEWER_11A-MH003	RG_SEWER_5YR_DESIGN	11A-MH003	2.000000	0.000000	435.600000	1.000000	0.000000
SC_SEWER_11A-MH004	RG_SEWER_5YR_DESIGN	11A-MH004	2.000000	0.000000	435.600000	1.000000	0.000000
SC_SEWER_11A-MH005	RG_SEWER_5YR_DESIGN	11A-MH005	3.000000	0.000000	653.400000	1.000000	0.000000
SC_SEWER_11A-MH006	RG_SEWER_5YR_DESIGN	11A-MH006	6.000000	0.000000	1306.800000	1.000000	0.000000
SC_SEWER_11A-MH007	RG_SEWER_5YR_DESIGN	11A-MH007	7.000000	0.000000	1524.600000	1.000000	0.000000
SC_SEWER_11A-MH008	RG_SEWER_5YR_DESIGN	11A-MH008	6.000000	0.000000	1306.800000	1.000000	0.000000
SC_SEWER_11A-MH009	RG_SEWER_5YR_DESIGN	11A-MH009	8.000000	0.000000	1742.400000	1.000000	0.000000
SC_SEWER_11A-MH010	RG_SEWER_5YR_DESIGN	11A-MH010	10.000000	0.000000	2178.000000	1.000000	0.000000
SC_SEWER_11A-MH011	RG_SEWER_5YR_DESIGN	11A-MH011	2.000000	0.000000	435.600000	1.000000	0.000000
SC_SEWER_11A-MH012	RG_SEWER_5YR_DESIGN	11A-MH012	1.000000	0.000000	217.800000	1.000000	0.000000
SC_SEWER_11A-MH013	RG_SEWER_5YR_DESIGN	11A-MH013	1.000000	0.000000	217.800000	1.000000	0.000000
SC_SEWER_11A-MH014	RG_SEWER_5YR_DESIGN	11A-MH014	2.000000	0.000000	435.600000	1.000000	0.000000
SC_SEWER_11A-MH015	RG_SEWER_5YR_DESIGN	11A-MH015	2.000000	0.000000	435.600000	1.000000	0.000000
SC_SEWER_11A-MH016	RG_SEWER_5YR_DESIGN	11A-MH016	2.000000	0.000000	435.600000	1.000000	0.000000
SC_SEWER_11A-MH017	RG_SEWER_5YR_DESIGN	11A-MH017	1.000000	0.000000	217.800000	1.000000	0.000000
SC_SEWER_11A-MH018	RG_SEWER_5YR_DESIGN	11A-MH018	2.000000	0.000000	435.600000	1.000000	0.000000
SC_SEWER_11A-MH019	RG_SEWER_5YR_DESIGN	11A-MH019	2.000000	0.000000	435.600000	1.000000	0.000000
SC_SEWER_11A-MH020	RG_SEWER_5YR_DESIGN	11A-MH020	2.000000	0.000000	435.600000	1.000000	0.000000
SC_SEWER_11A-MH021	RG_SEWER_5YR_DESIGN	11A-MH021	3.000000	0.000000	653.400000	1.000000	0.000000
SC_SEWER_11A-MH022	RG_SEWER_5YR_DESIGN	11A-MH022	3.000000	0.000000	653.400000	1.000000	0.000000
SC_SEWER_11A-MH023	RG_SEWER_5YR_DESIGN	11A-MH023	3.000000	0.000000	653.400000	1.000000	0.000000
SC_SEWER_11A-MH024	RG_SEWER_5YR_DESIGN	11A-MH024	2.000000	0.000000	435.600000	1.000000	0.000000
SC_SEWER_11A-MH025	RG_SEWER_5YR_DESIGN	11A-MH025	2.000000	0.000000	435.600000	1.000000	0.000000
SC_SEWER_11A-MH026	RG_SEWER_5YR_DESIGN	11A-MH026	3.000000	0.000000	653.400000	1.000000	0.000000
SC_SEWER_11A-MH027	RG_SEWER_5YR_DESIGN	11A-MH027	2.000000	0.000000	435.600000	1.000000	0.000000
SC_SEWER_11A-MH028	RG_SEWER_5YR_DESIGN	11A-MH028	2.000000	0.000000	435.600000	1.000000	0.000000
SC_SEWER_11A-MH029	RG_SEWER_5YR_DESIGN	11A-MH029	2.000000	0.000000	435.600000	1.000000	0.000000
SC_SEWER_11A-MH030	RG_SEWER_5YR_DESIGN	11A-MH030	2.000000	0.000000	435.600000	1.000000	0.000000
SC_SEWER_11A-MH031	RG_SEWER_5YR_DESIGN	11A-MH031	1.000000	0.000000	217.800000	1.000000	0.000000
SC_SEWER_11A-MH033	RG_SEWER_5YR_DESIGN	11A-MH033	1.000000	0.000000	217.800000	1.000000	0.000000
SC_SEWER_11A-MH034	RG_SEWER_5YR_DESIGN	11A-MH034	2.000000	0.000000	435.600000	1.000000	0.000000
SC_SEWER_11A-MH035	RG_SEWER_5YR_DESIGN	11A-MH035	1.000000	0.000000	217.800000	1.000000	0.000000
SC_SEWER_11A-MH036	RG_SEWER_5YR_DESIGN	11A-MH036	2.000000	0.000000	435.600000	1.000000	0.000000
SC_SEWER_11A-MH037	RG_SEWER_5YR_DESIGN	11A-MH037	7.000000	0.000000	1524.600000	1.000000	0.000000
SC_SEWER_11A-MH038	RG_SEWER_5YR_DESIGN	11A-MH038	1.000000	0.000000	217.800000	1.000000	0.000000
SC_SEWER_11A-MH039	RG_SEWER_5YR_DESIGN	11A-MH039	1.000000	0.000000	217.800000	1.000000	0.000000
SC_SEWER_11A-MH040	RG_SEWER_5YR_DESIGN	11A-MH040	2.000000	0.000000	435.600000	1.000000	0.000000