[TITLE]
;;Project Title/Notes

[OPTIONS]
;;Option             Value
FLOW_UNITS           CFS
INFILTRATION         MODIFIED_HORTON
FLOW_ROUTING         DYNWAVE
LINK_OFFSETS         DEPTH
MIN_SLOPE            0
ALLOW_PONDING        YES
SKIP_STEADY_STATE    NO

START_DATE           07/01/2018
START_TIME           00:00:00
REPORT_START_DATE    07/01/2018
REPORT_START_TIME    00:00:00
END_DATE             07/01/2018
END_TIME             23:54:00
SWEEP_START          01/01
SWEEP_END            12/31
DRY_DAYS             5.000000
REPORT_STEP          00:06:00
WET_STEP             00:05:00
DRY_STEP             01:00:00
ROUTING_STEP         0:00:05 

INERTIAL_DAMPING     PARTIAL
NORMAL_FLOW_LIMITED  SLOPE
FORCE_MAIN_EQUATION  H-W
VARIABLE_STEP        0.75
LENGTHENING_STEP     0
MIN_SURFAREA         0
MAX_TRIALS           4
HEAD_TOLERANCE       0.005000
SYS_FLOW_TOL         5
LAT_FLOW_TOL         5
MINIMUM_STEP         0
THREADS              1

[EVAPORATION]
;;Data Source    Parameters
;;-------------- ----------------
CONSTANT         0.0
DRY_ONLY         NO

[RAINGAGES]
;;Name           Format    Interval SCF      Source    
;;-------------- --------- ------ ------ ----------
; New Raingage
RAINGAGE-1       VOLUME    0:05     1.000000 TIMESERIES MyStorm         

[SUBCATCHMENTS]
;;Name           Rain Gage        Outlet           Area     %Imperv  Width    %Slope   CurbLen  SnowPack        
;;-------------- ---------------- ---------------- -------- -------- -------- -------- -------- ----------------
1                RAINGAGE-1       1077             0.106760 99.663929 24.027214 0.048463 0.000000                 
10               RAINGAGE-1       1020             0.632832 69.492719 73.686667 0.052601 0.000000                 
11               RAINGAGE-1       1032             0.559994 65.996100 70.924799 0.062328 0.000000                 
12               RAINGAGE-1       1035             0.194427 75.924007 45.267898 0.044671 0.000000                 
13               RAINGAGE-1       1026             0.050662 92.256921 30.604576 0.033284 0.000000                 
14               RAINGAGE-1       1028             0.880570 67.086275 93.650415 0.013377 0.000000                 
15               RAINGAGE-1       1037             0.357725 77.418471 66.476770 0.012445 0.000000                 
16               RAINGAGE-1       1033             0.465790 76.570500 83.648320 0.069131 0.000000                 
17               RAINGAGE-1       1034             0.236644 75.818324 61.756240 0.046392 0.000000                 
18               RAINGAGE-1       1036             0.110689 69.393486 32.772214 0.029787 0.000000                 
19               RAINGAGE-1       1038             0.665204 70.143181 72.218950 0.022648 0.000000                 
2                RAINGAGE-1       1075             1.351517 64.657528 94.411159 0.048088 0.000000                 
20               RAINGAGE-1       1043             0.773079 57.354071 87.813305 0.060482 0.000000                 
21               RAINGAGE-1       1044             0.453617 70.527476 78.650790 0.041050 0.000000                 
22               RAINGAGE-1       1042             0.668561 72.752921 60.290152 0.060488 0.000000                 
23               RAINGAGE-1       1045             0.408466 71.780487 68.749889 0.042599 0.000000                 
24               RAINGAGE-1       1062             0.600525 70.890161 67.673020 0.054581 0.000000                 
25               RAINGAGE-1       1064             0.151218 93.438740 46.291452 0.023694 0.000000                 
26               RAINGAGE-1       1065             0.411114 89.606419 43.617580 0.027299 0.000000                 
27               RAINGAGE-1       1046             0.066076 95.008052 27.268655 0.012254 0.000000                 
28               RAINGAGE-1       1049             1.043822 71.586535 140.900269 0.024404 0.000000                 
29               RAINGAGE-1       1050             0.554242 69.938400 95.933247 0.037131 0.000000                 
3                RAINGAGE-1       1019             0.259069 79.271822 42.280368 0.025800 0.000000                 
30               RAINGAGE-1       1051             0.016401 100.000242 13.100183 0.024739 0.000000                 
31               RAINGAGE-1       1052             0.233417 94.022658 25.450097 0.020135 0.000000                 
32               RAINGAGE-1       1054             1.018485 67.353273 148.311984 0.026175 0.000000                 
33               RAINGAGE-1       1053             0.166574 78.305625 37.527677 0.026962 0.000000                 
34               RAINGAGE-1       1059             0.445989 69.497257 64.430120 0.087258 0.000000                 
35               RAINGAGE-1       1060             0.272619 87.003033 47.458047 0.081072 0.000000                 
36               RAINGAGE-1       1061             0.405659 82.303765 54.345031 0.056379 0.000000                 
37               RAINGAGE-1       1063             0.851258 55.756449 94.507986 0.032813 0.000000                 
38               RAINGAGE-1       1073             1.693655 51.701790 120.972245 0.087217 0.000000                 
39               RAINGAGE-1       1072             0.615505 64.244665 95.740103 0.128012 0.000000                 
4                RAINGAGE-1       1016             0.323239 84.669325 42.443022 0.034452 0.000000                 
40               RAINGAGE-1       1067             0.671762 57.717091 80.959902 0.025409 0.000000                 
41               RAINGAGE-1       1069             0.591846 66.293158 109.082462 0.028877 0.000000                 
42               RAINGAGE-1       1070             0.151520 86.522792 33.056770 0.015644 0.000000                 
43               RAINGAGE-1       1068             0.124953 58.825289 45.958532 0.046868 0.000000                 
44               RAINGAGE-1       1081             0.973626 74.910700 113.613627 0.017629 0.000000                 
45               RAINGAGE-1       1080             0.132781 85.357840 46.528515 0.016932 0.000000                 
46               RAINGAGE-1       1078             0.443798 61.004494 78.249638 0.039475 0.000000                 
47               RAINGAGE-1       1048             0.128811 98.281700 23.546279 0.019326 0.000000                 
48               RAINGAGE-1       1074             0.593383 78.350239 62.549898 0.098160 0.000000                 
49               RAINGAGE-1       1076             0.140910 92.109321 35.650772 0.068129 0.000000                 
5                RAINGAGE-1       1018             0.846215 69.754461 84.478659 0.017259 0.000000                 
50               RAINGAGE-1       1086             0.819617 44.980442 74.878985 0.121432 0.000000                 
51               RAINGAGE-1       1089             1.229072 62.756764 120.042628 0.093457 0.000000                 
53               RAINGAGE-1       1091             0.835376 60.597468 136.679233 0.081163 0.000000                 
54               RAINGAGE-1       1090             0.115217 94.875632 28.476773 0.068888 0.000000                 
55               RAINGAGE-1       1093             0.146108 68.501972 36.549792 0.030113 0.000000                 
56               RAINGAGE-1       1079             0.216660 87.061901 40.129484 0.035661 0.000000                 
57               RAINGAGE-1       1082             0.484770 87.365332 83.117342 0.027477 0.000000                 
58               RAINGAGE-1       1164             1.159317 56.438435 179.489956 0.074318 0.000000                 
59               RAINGAGE-1       1095             0.599221 72.929019 102.826291 0.057839 0.000000                 
6                RAINGAGE-1       1015             1.005289 62.139851 92.376559 0.039261 0.000000                 
60               RAINGAGE-1       1096             0.175758 97.835625 30.986315 0.038432 0.000000                 
61               RAINGAGE-1       1087             0.173851 99.576935 26.106944 0.097002 0.000000                 
62               RAINGAGE-1       1088             0.274515 97.693645 23.199598 0.087434 0.000000                 
63               RAINGAGE-1       1097             0.721949 78.241645 94.495676 0.011937 0.000000                 
65               RAINGAGE-1       1098             2.190995 49.671931 169.882215 0.096150 0.000000                 
66               RAINGAGE-1       1099             0.343631 75.315113 37.949544 0.088246 0.000000                 
67               RAINGAGE-1       1092             0.215660 85.529497 31.083375 0.055223 0.000000                 
68               RAINGAGE-1       1094             0.111687 91.145642 25.359465 0.050321 0.000000                 
69               RAINGAGE-1       1100             1.177995 56.139173 121.147604 0.085077 0.000000                 
7                RAINGAGE-1       1017             0.572573 67.747284 106.471269 0.052890 0.000000                 
70               RAINGAGE-1       1101             0.558656 54.235406 80.752576 0.058802 0.000000                 
71               RAINGAGE-1       1103             0.611615 60.782006 70.340031 0.100462 0.000000                 
72               RAINGAGE-1       1106             0.717370 61.448229 67.093930 0.066112 0.000000                 
73               RAINGAGE-1       1104             0.158490 93.904774 29.481677 0.087847 0.000000                 
74               RAINGAGE-1       1102             0.212624 68.963258 40.508667 0.085136 0.000000                 
75               RAINGAGE-1       1105             0.208688 89.664066 32.027737 0.078265 0.000000                 
76               RAINGAGE-1       1107             1.084606 65.573760 155.881355 0.038473 0.000000                 
77               RAINGAGE-1       1085             0.447532 69.816114 110.307692 0.150924 0.000000                 
78               RAINGAGE-1       1167             0.305113 72.304399 51.416301 0.009321 0.000000                 
79               RAINGAGE-1       1158             0.197435 73.638287 42.560435 0.011780 0.000000                 
8                RAINGAGE-1       1027             0.294841 76.369348 41.790001 0.010646 0.000000                 
80               RAINGAGE-1       1030             0.392868 54.520249 95.659067 0.049839 0.000000                 
81               RAINGAGE-1       1031             0.037700 77.332809 25.561723 0.064822 0.000000                 
83               RAINGAGE-1       1041             0.401919 62.761484 105.368799 0.063900 0.000000                 
84               RAINGAGE-1       1157             0.245201 86.151624 39.282207 0.010317 0.000000                 
86               RAINGAGE-1       1057             0.397037 75.384984 80.194583 0.044618 0.000000                 
87               RAINGAGE-1       1156             0.150257 85.265931 29.480139 0.075820 0.000000                 
88               RAINGAGE-1       1155             0.126809 90.976903 28.157993 0.090985 0.000000                 
89               RAINGAGE-1       1166             0.224238 81.308236 30.451786 0.061760 0.000000                 
9                RAINGAGE-1       1021             0.385039 83.882700 54.097018 0.051930 0.000000                 
91               RAINGAGE-1       1165             0.802760 64.536491 94.243190 0.034979 0.000000                 
92               RAINGAGE-1       1169             1.684714 53.697248 140.378129 0.075797 0.000000                 
93               RAINGAGE-1       1170             1.445951 50.806666 128.007941 0.086917 0.000000                 
94               RAINGAGE-1       1171             0.224970 86.335392 29.257234 0.018338 0.000000                 
95               RAINGAGE-1       1108             0.182971 83.155686 39.934515 0.083095 0.000000                 
97               RAINGAGE-1       1002             0.523948 34.788120 65.012965 0.001718 0.000000                 

[SUBAREAS]
;;Subcatchment   N-Imperv   N-Perv     S-Imperv   S-Perv     PctZero    RouteTo    PctRouted 
;;-------------- ---------- ---------- ---------- ---------- ---------- ---------- ----------
1                0.015000   0.030000   0.050000   0.100000   25.000000  IMPERVIOUS 100.000000
10               0.015000   0.030000   0.050000   0.100000   25.000000  IMPERVIOUS 100.000000
11               0.015000   0.030000   0.050000   0.100000   25.000000  IMPERVIOUS 100.000000
12               0.015000   0.030000   0.050000   0.100000   25.000000  IMPERVIOUS 100.000000
13               0.015000   0.030000   0.050000   0.100000   25.000000  IMPERVIOUS 100.000000
14               0.015000   0.030000   0.050000   0.100000   25.000000  IMPERVIOUS 100.000000
15               0.015000   0.030000   0.050000   0.100000   25.000000  IMPERVIOUS 100.000000
16               0.015000   0.030000   0.050000   0.100000   25.000000  IMPERVIOUS 100.000000
17               0.015000   0.030000   0.050000   0.100000   25.000000  IMPERVIOUS 100.000000
18               0.015000   0.030000   0.050000   0.100000   25.000000  IMPERVIOUS 100.000000
19               0.015000   0.030000   0.050000   0.100000   25.000000  IMPERVIOUS 100.000000
2                0.015000   0.030000   0.050000   0.100000   25.000000  IMPERVIOUS 100.000000
20               0.015000   0.030000   0.050000   0.100000   25.000000  IMPERVIOUS 100.000000
21               0.015000   0.030000   0.050000   0.100000   25.000000  IMPERVIOUS 100.000000
22               0.015000   0.030000   0.050000   0.100000   25.000000  IMPERVIOUS 100.000000
23               0.015000   0.030000   0.050000   0.100000   25.000000  IMPERVIOUS 100.000000
24               0.015000   0.030000   0.050000   0.100000   25.000000  IMPERVIOUS 100.000000
25               0.015000   0.030000   0.050000   0.100000   25.000000  IMPERVIOUS 100.000000
26               0.015000   0.030000   0.050000   0.100000   25.000000  IMPERVIOUS 100.000000
27               0.015000   0.030000   0.050000   0.100000   25.000000  IMPERVIOUS 100.000000
28               0.015000   0.030000   0.050000   0.100000   25.000000  IMPERVIOUS 100.000000
29               0.015000   0.030000   0.050000   0.100000   25.000000  IMPERVIOUS 100.000000
3                0.015000   0.030000   0.050000   0.100000   25.000000  IMPERVIOUS 100.000000
30               0.015000   0.030000   0.050000   0.100000   25.000000  IMPERVIOUS 100.000000
31               0.015000   0.030000   0.050000   0.100000   25.000000  IMPERVIOUS 100.000000
32               0.015000   0.030000   0.050000   0.100000   25.000000  IMPERVIOUS 100.000000
33               0.015000   0.030000   0.050000   0.100000   25.000000  IMPERVIOUS 100.000000
34               0.015000   0.030000   0.050000   0.100000   25.000000  IMPERVIOUS 100.000000
35               0.015000   0.030000   0.050000   0.100000   25.000000  IMPERVIOUS 100.000000
36               0.015000   0.030000   0.050000   0.100000   25.000000  IMPERVIOUS 100.000000
37               0.015000   0.030000   0.050000   0.100000   25.000000  IMPERVIOUS 100.000000
38               0.015000   0.030000   0.050000   0.100000   25.000000  IMPERVIOUS 100.000000
39               0.015000   0.030000   0.050000   0.100000   25.000000  IMPERVIOUS 100.000000
4                0.015000   0.030000   0.050000   0.100000   25.000000  IMPERVIOUS 100.000000
40               0.015000   0.030000   0.050000   0.100000   25.000000  IMPERVIOUS 100.000000
41               0.015000   0.030000   0.050000   0.100000   25.000000  IMPERVIOUS 100.000000
42               0.015000   0.030000   0.050000   0.100000   25.000000  IMPERVIOUS 100.000000
43               0.015000   0.030000   0.050000   0.100000   25.000000  IMPERVIOUS 100.000000
44               0.015000   0.030000   0.050000   0.100000   25.000000  IMPERVIOUS 100.000000
45               0.015000   0.030000   0.050000   0.100000   25.000000  IMPERVIOUS 100.000000
46               0.015000   0.030000   0.050000   0.100000   25.000000  IMPERVIOUS 100.000000
47               0.015000   0.030000   0.050000   0.100000   25.000000  IMPERVIOUS 100.000000
48               0.015000   0.030000   0.050000   0.100000   25.000000  IMPERVIOUS 100.000000
49               0.015000   0.030000   0.050000   0.100000   25.000000  IMPERVIOUS 100.000000
5                0.015000   0.030000   0.050000   0.100000   25.000000  IMPERVIOUS 100.000000
50               0.015000   0.030000   0.050000   0.100000   25.000000  IMPERVIOUS 100.000000
51               0.015000   0.030000   0.050000   0.100000   25.000000  IMPERVIOUS 100.000000
53               0.015000   0.030000   0.050000   0.100000   25.000000  IMPERVIOUS 100.000000
54               0.015000   0.030000   0.050000   0.100000   25.000000  IMPERVIOUS 100.000000
55               0.015000   0.030000   0.050000   0.100000   25.000000  IMPERVIOUS 100.000000
56               0.015000   0.030000   0.050000   0.100000   25.000000  IMPERVIOUS 100.000000
57               0.015000   0.030000   0.050000   0.100000   25.000000  IMPERVIOUS 100.000000
58               0.015000   0.030000   0.050000   0.100000   25.000000  IMPERVIOUS 100.000000
59               0.015000   0.030000   0.050000   0.100000   25.000000  IMPERVIOUS 100.000000
6                0.015000   0.030000   0.050000   0.100000   25.000000  IMPERVIOUS 100.000000
60               0.015000   0.030000   0.050000   0.100000   25.000000  IMPERVIOUS 100.000000
61               0.015000   0.030000   0.050000   0.100000   25.000000  IMPERVIOUS 100.000000
62               0.015000   0.030000   0.050000   0.100000   25.000000  IMPERVIOUS 100.000000
63               0.015000   0.030000   0.050000   0.100000   25.000000  IMPERVIOUS 100.000000
65               0.015000   0.030000   0.050000   0.100000   25.000000  IMPERVIOUS 100.000000
66               0.015000   0.030000   0.050000   0.100000   25.000000  IMPERVIOUS 100.000000
67               0.015000   0.030000   0.050000   0.100000   25.000000  IMPERVIOUS 100.000000
68               0.015000   0.030000   0.050000   0.100000   25.000000  IMPERVIOUS 100.000000
69               0.015000   0.030000   0.050000   0.100000   25.000000  IMPERVIOUS 100.000000
7                0.015000   0.030000   0.050000   0.100000   25.000000  IMPERVIOUS 100.000000
70               0.015000   0.030000   0.050000   0.100000   25.000000  IMPERVIOUS 100.000000
71               0.015000   0.030000   0.050000   0.100000   25.000000  IMPERVIOUS 100.000000
72               0.015000   0.030000   0.050000   0.100000   25.000000  IMPERVIOUS 100.000000
73               0.015000   0.030000   0.050000   0.100000   25.000000  IMPERVIOUS 100.000000
74               0.015000   0.030000   0.050000   0.100000   25.000000  IMPERVIOUS 100.000000
75               0.015000   0.030000   0.050000   0.100000   25.000000  IMPERVIOUS 100.000000
76               0.015000   0.030000   0.050000   0.100000   25.000000  IMPERVIOUS 100.000000
77               0.015000   0.030000   0.050000   0.100000   25.000000  IMPERVIOUS 100.000000
78               0.015000   0.030000   0.050000   0.100000   25.000000  IMPERVIOUS 100.000000
79               0.015000   0.030000   0.050000   0.100000   25.000000  IMPERVIOUS 100.000000
8                0.015000   0.030000   0.050000   0.100000   25.000000  IMPERVIOUS 100.000000
80               0.015000   0.030000   0.050000   0.100000   25.000000  IMPERVIOUS 100.000000
81               0.015000   0.030000   0.050000   0.100000   25.000000  IMPERVIOUS 100.000000
83               0.015000   0.030000   0.050000   0.100000   25.000000  IMPERVIOUS 100.000000
84               0.015000   0.030000   0.050000   0.100000   25.000000  IMPERVIOUS 100.000000
86               0.015000   0.030000   0.050000   0.100000   25.000000  IMPERVIOUS 100.000000
87               0.015000   0.030000   0.050000   0.100000   25.000000  IMPERVIOUS 100.000000
88               0.015000   0.030000   0.050000   0.100000   25.000000  IMPERVIOUS 100.000000
89               0.015000   0.030000   0.050000   0.100000   25.000000  IMPERVIOUS 100.000000
9                0.015000   0.030000   0.050000   0.100000   25.000000  IMPERVIOUS 100.000000
91               0.015000   0.030000   0.050000   0.100000   25.000000  IMPERVIOUS 100.000000
92               0.015000   0.030000   0.050000   0.100000   25.000000  IMPERVIOUS 100.000000
93               0.015000   0.030000   0.050000   0.100000   25.000000  IMPERVIOUS 100.000000
94               0.015000   0.030000   0.050000   0.100000   25.000000  IMPERVIOUS 100.000000
95               0.015000   0.030000   0.050000   0.100000   25.000000  IMPERVIOUS 100.000000
97               0.015000   0.030000   0.050000   0.100000   25.000000  IMPERVIOUS 100.000000

[INFILTRATION]
;;Subcatchment   MaxRate    MinRate    Decay      DryTime    MaxInfil  
;;-------------- ---------- ---------- ---------- ---------- ----------
1                3.0        0.5        4          7          0         
10               3.0        0.5        4          7          0         
11               3.0        0.5        4          7          0         
12               3.0        0.5        4          7          0         
13               3.0        0.5        4          7          0         
14               3.0        0.5        4          7          0         
15               3.0        0.5        4          7          0         
16               3.0        0.5        4          7          0         
17               3.0        0.5        4          7          0         
18               3.0        0.5        4          7          0         
19               3.0        0.5        4          7          0         
2                3.0        0.5        4          7          0         
20               3.0        0.5        4          7          0         
21               3.0        0.5        4          7          0         
22               3.0        0.5        4          7          0         
23               3.0        0.5        4          7          0         
24               3.0        0.5        4          7          0         
25               3.0        0.5        4          7          0         
26               3.0        0.5        4          7          0         
27               3.0        0.5        4          7          0         
28               3.0        0.5        4          7          0         
29               3.0        0.5        4          7          0         
3                3.0        0.5        4          7          0         
30               3.0        0.5        4          7          0         
31               3.0        0.5        4          7          0         
32               3.0        0.5        4          7          0         
33               3.0        0.5        4          7          0         
34               3.0        0.5        4          7          0         
35               3.0        0.5        4          7          0         
36               3.0        0.5        4          7          0         
37               3.0        0.5        4          7          0         
38               3.0        0.5        4          7          0         
39               3.0        0.5        4          7          0         
4                3.0        0.5        4          7          0         
40               3.0        0.5        4          7          0         
41               3.0        0.5        4          7          0         
42               3.0        0.5        4          7          0         
43               3.0        0.5        4          7          0         
44               3.0        0.5        4          7          0         
45               3.0        0.5        4          7          0         
46               3.0        0.5        4          7          0         
47               3.0        0.5        4          7          0         
48               3.0        0.5        4          7          0         
49               3.0        0.5        4          7          0         
5                3.0        0.5        4          7          0         
50               3.0        0.5        4          7          0         
51               3.0        0.5        4          7          0         
53               3.0        0.5        4          7          0         
54               3.0        0.5        4          7          0         
55               3.0        0.5        4          7          0         
56               3.0        0.5        4          7          0         
57               3.0        0.5        4          7          0         
58               3.0        0.5        4          7          0         
59               3.0        0.5        4          7          0         
6                3.0        0.5        4          7          0         
60               3.0        0.5        4          7          0         
61               3.0        0.5        4          7          0         
62               3.0        0.5        4          7          0         
63               3.0        0.5        4          7          0         
65               3.0        0.5        4          7          0         
66               3.0        0.5        4          7          0         
67               3.0        0.5        4          7          0         
68               3.0        0.5        4          7          0         
69               3.0        0.5        4          7          0         
7                3.0        0.5        4          7          0         
70               3.0        0.5        4          7          0         
71               3.0        0.5        4          7          0         
72               3.0        0.5        4          7          0         
73               3.0        0.5        4          7          0         
74               3.0        0.5        4          7          0         
75               3.0        0.5        4          7          0         
76               3.0        0.5        4          7          0         
77               3.0        0.5        4          7          0         
78               3.0        0.5        4          7          0         
79               3.0        0.5        4          7          0         
8                3.0        0.5        4          7          0         
80               3.0        0.5        4          7          0         
81               3.0        0.5        4          7          0         
83               3.0        0.5        4          7          0         
84               3.0        0.5        4          7          0         
86               3.0        0.5        4          7          0         
87               3.0        0.5        4          7          0         
88               3.0        0.5        4          7          0         
89               3.0        0.5        4          7          0         
9                3.0        0.5        4          7          0         
91               3.0        0.5        4          7          0         
92               3.0        0.5        4          7          0         
93               3.0        0.5        4          7          0         
94               3.0        0.5        4          7          0         
95               3.0        0.5        4          7          0         
97               3.0        0.5        4          7          0         

[JUNCTIONS]
;;Name           Elevation  MaxDepth   InitDepth  SurDepth   Aponded   
;;-------------- ---------- ---------- ---------- ---------- ----------
1002             6.500000   7.000000   0.000000   0.000000   0.000000  
1003             16.360000  7.000000   0.000000   0.000000   0.000000  
1004             22.883135  7.000000   0.000000   0.000000   0.000000  
1005             23.511366  7.000000   0.000000   0.000000   0.000000  
1006             27.120388  7.000000   0.000000   0.000000   0.000000  
1007             32.294243  7.000000   0.000000   0.000000   0.000000  
1008             42.910999  7.000000   0.000000   0.000000   0.000000  
1009             63.975403  7.000000   0.000000   0.000000   0.000000  
1010             80.017250  7.000000   0.000000   0.000000   0.000000  
1011             83.754745  7.000000   0.000000   0.000000   0.000000  
1012             85.308899  7.000000   0.000000   0.000000   0.000000  
1013             87.185387  7.000000   0.000000   0.000000   0.000000  
1014             85.876884  7.000000   0.000000   0.000000   0.000000  
1015             90.128487  7.000000   0.000000   0.000000   0.000000  
1016             90.238228  7.000000   0.000000   0.000000   0.000000  
1017             87.872223  7.000000   0.000000   0.000000   0.000000  
1018             101.585693 7.000000   0.000000   0.000000   0.000000  
1019             100.860146 7.000000   0.000000   0.000000   0.000000  
1020             91.563301  7.000000   0.000000   0.000000   0.000000  
1021             91.566185  7.000000   0.000000   0.000000   0.000000  
1026             106.098305 7.000000   0.000000   0.000000   0.000000  
1027             105.844727 7.000000   0.000000   0.000000   0.000000  
1028             107.845093 7.000000   0.000000   0.000000   0.000000  
1030             86.796181  7.000000   0.000000   0.000000   0.000000  
1031             86.462105  7.000000   0.000000   0.000000   0.000000  
1032             89.804604  7.000000   0.000000   0.000000   0.000000  
1033             90.458656  7.000000   0.000000   0.000000   0.000000  
1034             103.023857 7.000000   0.000000   0.000000   0.000000  
1035             102.875168 7.000000   0.000000   0.000000   0.000000  
1036             110.009613 7.000000   0.000000   0.000000   0.000000  
1037             109.619049 7.000000   0.000000   0.000000   0.000000  
1038             110.756653 7.000000   0.000000   0.000000   0.000000  
1039             110.406799 7.000000   0.000000   0.000000   0.000000  