[TITLE]
;;Project Title/Notes
                   

[OPTIONS]
;;Option             Value
FLOW_UNITS           CMS
INFILTRATION         HORTON
FLOW_ROUTING         DYNWAVE
LINK_OFFSETS         DEPTH
MIN_SLOPE            0
ALLOW_PONDING        NO
SKIP_STEADY_STATE    NO

START_DATE           06/26/1998
START_TIME           00:00:00
REPORT_START_DATE    06/26/1998
REPORT_START_TIME    00:00:00
END_DATE             06/27/1998
END_TIME             01:00:00
SWEEP_START          1/1
SWEEP_END            12/31
DRY_DAYS             0
REPORT_STEP          00:05:00
WET_STEP             00:05:00
DRY_STEP             00:05:00
ROUTING_STEP         0:01:00 

INERTIAL_DAMPING     PARTIAL
NORMAL_FLOW_LIMITED  FROUDE
FORCE_MAIN_EQUATION  H-W
VARIABLE_STEP        0.75
LENGTHENING_STEP     0
MIN_SURFAREA         1.2
MAX_TRIALS           0
HEAD_TOLERANCE       0
SYS_FLOW_TOL         5
LAT_FLOW_TOL         5
MINIMUM_STEP         0.5
THREADS              1

[EVAPORATION]
;;Data Source    Parameters
;;-------------- ----------------
CONSTANT         0.0
DRY_ONLY         NO

[RAINGAGES]
;;Name           Format    Interval SCF      Source    
;;-------------- --------- ------ ------ ----------
GAGE1            VOLUME    0.25000  1.0      TIMESERIES SERIES1         

[SUBCATCHMENTS]
;;Name           Rain Gage        Outlet           Area     %Imperv  Width    %Slope   CurbLen  SnowPack        
;;-------------- ---------------- ---------------- -------- -------- -------- -------- -------- ----------------
100              GAGE1            3                0.0285   22       13.7756655 0.4      0                        
101              GAGE1            5                0.091    22       24.61562431 0.4      0                        
102              GAGE1            1000             0.0345   22       15.15652731 0.4      0                        
103              GAGE1            1001             0.011    22       8.558280201 0.4      0                        
104              GAGE1            1002             0.032    22       14.59705176 0.4      0                        
105              GAGE1            1003             0.021    22       11.82496342 0.4      0                        
106              GAGE1            1004             0.0645   22       20.72382976 0.4      0                        
107              GAGE1            1005             0.0215   22       11.96490869 0.4      0                        
108              GAGE1            1008             0.0185   22       11.09879994 0.4      0                        
109              GAGE1            1009             0.0055   22       6.051617965 0.4      0                        
110              GAGE1            1010             0.003    22       4.469416069 0.4      0                        
111              GAGE1            1011             0.011    22       8.558280201 0.4      0                        
112              GAGE1            1012             0.0115   22       8.750625121 0.4      0                        
113              GAGE1            1013             0.02     22       11.53998267 0.4      0                        
114              GAGE1            1014             0.0045   22       5.473894409 0.4      0                        
115              GAGE1            1017             0.027    22       13.40824821 0.4      0                        
116              GAGE1            1018             0.0235   22       12.50904313 0.4      0                        
117              GAGE1            1019             0.025    22       12.90209285 0.4      0                        
118              GAGE1            1020             0.0255   22       13.03047505 0.4      0                        
119              GAGE1            1021             0.0905   22       24.54790582 0.4      0                        
120              GAGE1            1022             0.007    22       6.827145817 0.4      0                        
121              GAGE1            1023             0.013    22       9.303831469 0.4      0                        
122              GAGE1            1024             0.0385   22       16.01107617 0.4      0                        
123              GAGE1            1026             0.036    22       15.48251142 0.4      0                        
124              GAGE1            1028             0.0445   22       17.21353886 0.4      0                        
125              GAGE1            1029             0.0045   22       5.473894409 0.4      0                        
126              GAGE1            1030             0.0355   22       15.37461804 0.4      0                        
127              GAGE1            1031             0.1065   22       26.6296196 0.4      0                        
128              GAGE1            1032             0.0195   22       11.39481988 0.4      0                        
129              GAGE1            1033             0.0545   22       19.04971181 0.4      0                        
130              GAGE1            1034             0.046    22       17.50125024 0.4      0                        
131              GAGE1            1035             0.055    22       19.1368963 0.4      0                        
132              GAGE1            1036             0.0045   22       5.473894409 0.4      0                        
133              GAGE1            1038             0.021    22       11.82496342 0.4      0                        
134              GAGE1            1039             0.0115   22       8.750625121 0.4      0                        
135              GAGE1            1040             0.037    22       15.69607339 0.4      0                        
136              GAGE1            1041             0.0545   22       19.04971181 0.4      0                        
137              GAGE1            1042             0.1      22       25.80418571 0.4      0                        
138              GAGE1            1044             0.022    22       12.10323593 0.4      0                        
139              GAGE1            1045             0.0135   22       9.481063232 0.4      0                        
140              GAGE1            1046             0.043    22       16.92093614 0.4      0                        
141              GAGE1            1047             0.0045   22       5.473894409 0.4      0                        
142              GAGE1            1048             0.023    22       12.37525272 0.4      0                        
143              GAGE1            1049             0.0115   22       8.750625121 0.4      0                        
144              GAGE1            1050             0.0125   22       9.123157348 0.4      0                        
145              GAGE1            1051             0.017    22       10.63933833 0.4      0                        
146              GAGE1            1053             0.0045   22       5.473894409 0.4      0                        
147              GAGE1            1054             0.0175   22       10.79466535 0.4      0                        
148              GAGE1            1055             0.023    22       12.37525272 0.4      0                        
149              GAGE1            1056             0.0655   22       20.88386171 0.4      0                        
150              GAGE1            1057             0.0215   22       11.96490869 0.4      0                        
151              GAGE1            1059             0.0125   22       9.123157348 0.4      0                        
152              GAGE1            1060             0.0145   22       9.825941176 0.4      0                        
153              GAGE1            1063             0.02     22       11.53998267 0.4      0                        
154              GAGE1            1064             0.0175   22       10.79466535 0.4      0                        
155              GAGE1            1065             0.047    22       17.69045845 0.4      0                        
156              GAGE1            1068             0.031    22       14.36716256 0.4      0                        
157              GAGE1            1070             0.053    22       18.78573076 0.4      0                        
158              GAGE1            1072             0.0335   22       14.93525226 0.4      0                        
159              GAGE1            1073             0.0135   22       9.481063232 0.4      0                        
160              GAGE1            1074             0.029    22       13.89597927 0.4      0                        
161              GAGE1            1076             0.0085   22       7.523148277 0.4      0                        
162              GAGE1            1078             0.0535   22       18.87413468 0.4      0                        
163              GAGE1            1079             0.017    22       10.63933833 0.4      0                        
164              GAGE1            1080             0.009    22       7.741255712 0.4      0                        
165              GAGE1            1082             0.0195   22       11.39481988 0.4      0                        
166              GAGE1            1083             0.017    22       10.63933833 0.4      0                        
167              GAGE1            1084             0.05     22       18.2463147 0.4      0                        
168              GAGE1            1085             0.0135   22       9.481063232 0.4      0                        
169              GAGE1            1086             0.0165   22       10.48170978 0.4      0                        
170              GAGE1            1088             0.046    22       17.50125024 0.4      0                        
171              GAGE1            1089             0.0265   22       13.28351761 0.4      0                        
172              GAGE1            1090             0.018    22       10.94778882 0.4      0                        
173              GAGE1            1091             0.023    22       12.37525272 0.4      0                        
174              GAGE1            1093             0.0435   22       17.01902935 0.4      0                        
175              GAGE1            1094             0.0355   22       15.37461804 0.4      0                        
176              GAGE1            1095             0.023    22       12.37525272 0.4      0                        
177              GAGE1            1096             0.026    22       13.15760465 0.4      0                        
178              GAGE1            1097             0.015    22       9.993918151 0.4      0                        
179              GAGE1            1098             0.0025   22       4.08     0.4      0                        
180              GAGE1            1101             0.0245   22       12.77242029 0.4      0                        
181              GAGE1            1102             0.015    22       9.993918151 0.4      0                        
182              GAGE1            1103             0.045    22       17.309974 0.4      0                        
183              GAGE1            1104             0.025    22       12.90209285 0.4      0                        
184              GAGE1            1105             0.033    22       14.82337613 0.4      0                        
185              GAGE1            1106             0.011    22       8.558280201 0.4      0                        
186              GAGE1            1107             0.012    22       8.938832138 0.4      0                        
187              GAGE1            1108             0.036    22       15.48251142 0.4      0                        
188              GAGE1            1109             0.026    22       13.15760465 0.4      0                        
189              GAGE1            1110             0.04     22       16.32    0.4      0                        
190              GAGE1            1113             0.0245   22       12.77242029 0.4      0                        
191              GAGE1            1114             0.014    22       9.655042206 0.4      0                        
192              GAGE1            1115             0.015    22       9.993918151 0.4      0                        
193              GAGE1            1116             0.0325   22       14.7106492 0.4      0                        
194              GAGE1            1117             0.005    22       5.769991334 0.4      0                        
195              GAGE1            1118             0.0255   22       13.03047505 0.4      0                        
196              GAGE1            1119             0.019    22       11.24778378 0.4      0                        
197              GAGE1            1120             0.007    22       6.827145817 0.4      0                        
198              GAGE1            1121             0.0075   22       7.066767295 0.4      0                        
199              GAGE1            1122             0.019    22       11.24778378 0.4      0                        
200              GAGE1            1124             0.0365   22       15.58965811 0.4      0                        
201              GAGE1            1125             0.031    22       14.36716256 0.4      0                        
202              GAGE1            1126             0.0135   22       9.481063232 0.4      0                        
203              GAGE1            1127             0.047    22       17.69045845 0.4      0                        
204              GAGE1            1128             0.041    22       16.52274069 0.4      0                        
205              GAGE1            1129             0.018    22       10.94778882 0.4      0                        
206              GAGE1            1130             0.051    22       18.42787454 0.4      0                        
207              GAGE1            1131             0.026    22       13.15760465 0.4      0                        
208              GAGE1            1132             0.02     22       11.53998267 0.4      0                        
209              GAGE1            1133             0.02     22       11.53998267 0.4      0                        
210              GAGE1            1134             0.01     22       8.16     0.4      0                        
211              GAGE1            1135             0.006    22       6.320708821 0.4      0                        
212              GAGE1            1136             0.0195   22       11.39481988 0.4      0                        
213              GAGE1            1137             0.037    22       15.69607339 0.4      0                        
214              GAGE1            1138             0.031    22       14.36716256 0.4      0                        
215              GAGE1            1139             0.0145   22       9.825941176 0.4      0                        
216              GAGE1            1140             0.0425   22       16.82227095 0.4      0                        
217              GAGE1            1141             0.0555   22       19.22368539 0.4      0                        
218              GAGE1            1143             0.014    22       9.655042206 0.4      0                        
219              GAGE1            1144             0.0415   22       16.62318381 0.4      0                        
220              GAGE1            1145             0.0125   22       9.123157348 0.4      0                        
221              GAGE1            1146             0.0125   22       9.123157348 0.4      0                        
222              GAGE1            1148             0.031    22       14.36716256 0.4      0                        
223              GAGE1            1149             0.021    22       11.82496342 0.4      0                        
224              GAGE1            1150             0.024    22       12.64141764 0.4      0                        
225              GAGE1            1152             0.026    22       13.15760465 0.4      0                        
226              GAGE1            1152             0.0285   22       13.7756655 0.4      0                        
227              GAGE1            1153             0.035    22       15.26596214 0.4      0                        
228              GAGE1            1154             0.061    22       20.15371331 0.4      0                        
229              GAGE1            1155             0.011    22       8.558280201 0.4      0                        
230              GAGE1            1157             0.018    22       10.94778882 0.4      0                        
231              GAGE1            1158             0.059    22       19.82057113 0.4      0                        
232              GAGE1            1159             0.0185   22       11.09879994 0.4      0                        
233              GAGE1            1161             0.0305   22       14.25082734 0.4      0                        
234              GAGE1            1163             0.0165   22       10.48170978 0.4      0                        
235              GAGE1            1165             0.0315   22       14.48256331 0.4      0                        
236              GAGE1            1166             0.0495   22       18.1548539 0.4      0                        
237              GAGE1            1168             0.0035   22       4.827521103 0.4      0                        
238              GAGE1            1169             0.011    22       8.558280201 0.4      0                        
239              GAGE1            1170             0.016    22       10.32167428 0.4      0                        
240              GAGE1            1171             0.0095   22       7.953384185 0.4      0                        
241              GAGE1            1173             0.023    22       12.37525272 0.4      0                        
242              GAGE1            1175             0.0395   22       16.21767924 0.4      0                        
243              GAGE1            1176             0.0165   22       10.48170978 0.4      0                        
244              GAGE1            1177             0.034    22       15.04629655 0.4      0                        
245              GAGE1            1178             0.012    22       8.938832138 0.4      0                        
246              GAGE1            1179             0.019    22       11.24778378 0.4      0                        
247              GAGE1            1180             0.0315   22       14.48256331 0.4      0                        
248              GAGE1            1181             0.018    22       10.94778882 0.4      0                        
249              GAGE1            1182             0.021    22       11.82496342 0.4      0                        
250              GAGE1            1183             0.0155   22       10.15911807 0.4      0                        
251              GAGE1            1184             0.049    22       18.06292999 0.4      0                        
252              GAGE1            1185             0.0315   22       14.48256331 0.4      0                        
253              GAGE1            1186             0.019    22       11.24778378 0.4      0                        
254              GAGE1            1187             0.007    22       6.827145817 0.4      0                        
255              GAGE1            1188             0.007    22       6.827145817 0.4      0                        
256              GAGE1            1189             0.0205   22       11.68334199 0.4      0                        
257              GAGE1            1190             0.014    22       9.655042206 0.4      0                        
258              GAGE1            1191             0.0175   22       10.79466535 0.4      0                        
259              GAGE1            1192             0.031    22       14.36716256 0.4      0                        
260              GAGE1            1193             0.009    22       7.741255712 0.4      0                        
261              GAGE1            1194             0.067    22       21.1216363 0.4      0                        
262              GAGE1            1195             0.042    22       16.72302365 0.4      0                        
263              GAGE1            1196             0.0225   22       12.24    0.4      0                        
264              GAGE1            1197             0.0145   22       9.825941176 0.4      0                        
265              GAGE1            1198             0.044    22       17.1165604 0.4      0                        
266              GAGE1            1199             0.0575   22       19.56699262 0.4      0                        
267              GAGE1            1201             0.0145   22       9.825941176 0.4      0                        
268              GAGE1            1204             0.0235   22       12.50904313 0.4      0                        
269              GAGE1            1207             0.0035   22       4.827521103 0.4      0                        
270              GAGE1            1209             0.0445   22       17.21353886 0.4      0                        
271              GAGE1            1210             0.0305   22       14.25082734 0.4      0                        
272              GAGE1            1211             0.003    22       4.469416069 0.4      0                        
273              GAGE1            1212             0.0095   22       7.953384185 0.4      0                        
274              GAGE1            1213             0.0345   22       15.15652731 0.4      0                        
275              GAGE1            1214             0.03     22       14.13353459 0.4      0                        
276              GAGE1            1215             0.024    22       12.64141764 0.4      0                        
277              GAGE1            1216             0.0255   22       13.03047505 0.4      0                        
278              GAGE1            1217             0.048    22       17.87766428 0.4      0                        
279              GAGE1            1218             0.024    22       12.64141764 0.4      0                        
280              GAGE1            1219             0.0305   22       14.25082734 0.4      0                        
281              GAGE1            1220             0.0135   22       9.481063232 0.4      0                        
282              GAGE1            1221             0.0345   22       15.15652731 0.4      0                        
283              GAGE1            1222             0.03     22       14.13353459 0.4      0                        
284              GAGE1            1223             0.0465   22       17.59610866 0.4      0                        
285              GAGE1            1224             0.015    22       9.993918151 0.4      0                        
286              GAGE1            1228             0.014    22       9.655042206 0.4      0                        
287              GAGE1            1229             0.018    22       10.94778882 0.4      0                        
288              GAGE1            1230             0.0165   22       10.48170978 0.4      0                        
289              GAGE1            1231             0.0165   22       10.48170978 0.4      0                        
290              GAGE1            1232             0.142    22       30.74923609 0.4      0                        
291              GAGE1            1233             0.0165   22       10.48170978 0.4      0                        
292              GAGE1            1234             0.0245   22       12.77242029 0.4      0                        
293              GAGE1            1235             0.0225   22       12.24    0.4      0                        
294              GAGE1            1236             0.027    22       13.40824821 0.4      0                        
295              GAGE1            1240             0.0165   22       10.48170978 0.4      0                        
296              GAGE1            1241             0.06     22       19.9878363 0.4      0                        
297              GAGE1            1002000          0.007    22       6.827145817 0.4      0                        
298              GAGE1            1002002          0.0035   22       4.827521103 0.4      0                        
299              GAGE1            1003000          0.0255   22       13.03047505 0.4      0                        
300              GAGE1            1004000          0.0155   22       10.15911807 0.4      0                        
301              GAGE1            1005000          0.0035   22       4.827521103 0.4      0                        
302              GAGE1            1006000          0.084    22       23.64992685 0.4      0                        
303              GAGE1            1007000          0.007    22       6.827145817 0.4      0                        
304              GAGE1            1007002          0.007    22       6.827145817 0.4      0                        
305              GAGE1            1008000          0.0365   22       15.58965811 0.4      0                        
306              GAGE1            1008004          0.0395   22       16.21767924 0.4      0                        
307              GAGE1            1009000          0.004    22       5.160837141 0.4      0                        
308              GAGE1            1011000          0.027    22       13.40824821 0.4      0                        
309              GAGE1            1011002          0.037    22       15.69607339 0.4      0                        
310              GAGE1            1011004          0.0205   22       11.68334199 0.4      0                        
311              GAGE1            1011006          0.044    22       17.1165604 0.4      0                        
312              GAGE1            1012000          0.0445   22       17.21353886 0.4      0                        
313              GAGE1            1012002          0.051    22       18.42787454 0.4      0                        
314              GAGE1            1012004          0.021    22       11.82496342 0.4      0                        
315              GAGE1            1013000          0.027    22       13.40824821 0.4      0                        
316              GAGE1            1013002          0.0285   22       13.7756655 0.4      0                        
317              GAGE1            1034000          0.03     22       14.13353459 0.4      0                        
318              GAGE1            1034001          0.011    22       8.558280201 0.4      0                        
319              GAGE1            1034002          0.022    22       12.10323593 0.4      0                        
320              GAGE1            1034003          0.0105   22       8.361511825 0.4      0                        
321              GAGE1            1034004          0.026    22       13.15760465 0.4      0                        
322              GAGE1            1034005          0.0155   22       10.15911807 0.4      0                        
323              GAGE1            1034007          0.022    22       12.10323593 0.4      0                        
324              GAGE1            1034008          0.0175   22       10.79466535 0.4      0                        
325              GAGE1            1034009          0.023    22       12.37525272 0.4      0                        
326              GAGE1            1034010          0.0175   22       10.79466535 0.4      0                        
327              GAGE1            1034011          0.0295   22       14.01526025 0.4      0                        
328              GAGE1            1035000          0.0515   22       18.51798693 0.4      0                        
329              GAGE1            1036000          0.0155   22       10.15911807 0.4      0                        
330              GAGE1            1037000          0.038    22       15.90676837 0.4      0                        
331              GAGE1            1038000          0.038    22       15.90676837 0.4      0                        
332              GAGE1            1038002          0.011    22       8.558280201 0.4      0                        
333              GAGE1            1038004          0.066    22       20.96341957 0.4      0                        
334              GAGE1            1058000          0.034    22       15.04629655 0.4      0                        
335              GAGE1            1058002          0.017    22       10.63933833 0.4      0                        
336              GAGE1            1064000          0.0285   22       13.7756655 0.4      0                        
337              GAGE1            1068000          0.0185   22       11.09879994 0.4      0                        
338              GAGE1            1068002          0.113    22       27.43022566 0.4      0                        
339              GAGE1            1069000          0.0595   22       19.90437942 0.4      0                        
340              GAGE1            1069002          0.028    22       13.65429163 0.4      0                        
341              GAGE1            1070000          0.0345   22       15.15652731 0.4      0                        
342              GAGE1            1070002          0.0185   22       11.09879994 0.4      0                        
343              GAGE1            1071000          0.025    22       12.90209285 0.4      0                        
344              GAGE1            1072000          0.0285   22       13.7756655 0.4      0                        