[TITLE]
;;Project Title/Notes

[OPTIONS]
;;Option             Value
FLOW_UNITS           MGD
INFILTRATION         HORTON
FLOW_ROUTING         KINWAVE
LINK_OFFSETS         DEPTH
MIN_SLOPE            0
ALLOW_PONDING        YES
SKIP_STEADY_STATE    NO

IGNORE_ROUTING       YES
START_DATE           04/07/2010
START_TIME           00:00:00
REPORT_START_DATE    04/07/2010
REPORT_START_TIME    00:00:00
END_DATE             04/08/2010
END_TIME             00:00:00
SWEEP_START          01/01
SWEEP_END            12/31
DRY_DAYS             0
REPORT_STEP          00:05:00
WET_STEP             00:05:00
DRY_STEP             00:05:00
ROUTING_STEP         0:00:30 

INERTIAL_DAMPING     PARTIAL
NORMAL_FLOW_LIMITED  BOTH
FORCE_MAIN_EQUATION  D-W
VARIABLE_STEP        0.75
LENGTHENING_STEP     30
MIN_SURFAREA         0
MAX_TRIALS           0
HEAD_TOLERANCE       0
SYS_FLOW_TOL         5
LAT_FLOW_TOL         5
MINIMUM_STEP         0.5
THREADS              1

[EVAPORATION]
;;Data Source    Parameters
;;-------------- ----------------
CONSTANT         0.0
DRY_ONLY         NO

[RAINGAGES]
;;Name           Format    Interval SCF      Source    
;;-------------- --------- ------ ------ ----------
MainSt_RG        VOLUME    0:05     1        TIMESERIES 3Month6Hour_Huff_Apr7
METER_01_RF      VOLUME    0:05     1        TIMESERIES 3Month6Hour_Huff_Apr7
METER_02_RF      VOLUME    0:05     1        TIMESERIES 3Month6Hour_Huff_Apr7
METER_03_RF      VOLUME    0:05     1        TIMESERIES 3Month6Hour_Huff_Apr7
METER_04_RF      VOLUME    0:05     1        TIMESERIES 3Month6Hour_Huff_Apr7
METER_05_RF      VOLUME    0:05     1        TIMESERIES 3Month6Hour_Huff_Apr7
METER_06_RF      VOLUME    0:05     1        TIMESERIES 3Month6Hour_Huff_Apr7
METER_07_RF      VOLUME    0:05     1        TIMESERIES 3Month6Hour_Huff_Apr7
METER_08_RF      VOLUME    0:05     1        TIMESERIES 3Month6Hour_Huff_Apr7
METER_09_RF      VOLUME    0:05     1        TIMESERIES 3Month6Hour_Huff_Apr7
METER_10_RF      VOLUME    0:05     1        TIMESERIES 3Month6Hour_Huff_Apr7
METER_11_RF      VOLUME    0:05     1        TIMESERIES 3Month6Hour_Huff_Apr7
METER_12_RF      VOLUME    0:05     1        TIMESERIES 3Month6Hour_Huff_Apr7
METER_13_RF      VOLUME    0:05     1        TIMESERIES 3Month6Hour_Huff_Apr7
METER_14_RF      VOLUME    0:05     1        TIMESERIES 3Month6Hour_Huff_Apr7
METER_15_RF      VOLUME    0:05     1        TIMESERIES 3Month6Hour_Huff_Apr7
METER_16_RF      VOLUME    0:05     1        TIMESERIES 3Month6Hour_Huff_Apr7
METER_17_RF      VOLUME    0:05     1        TIMESERIES 3Month6Hour_Huff_Apr7
METER_18_RF      VOLUME    0:05     1        TIMESERIES 3Month6Hour_Huff_Apr7
METER_19_RF      VOLUME    0:05     1        TIMESERIES 3Month6Hour_Huff_Apr7
METER_20_RF      VOLUME    0:05     1        TIMESERIES 3Month6Hour_Huff_Apr7
METER_21_RF      VOLUME    0:05     1        TIMESERIES 3Month6Hour_Huff_Apr7
METER_22_RF      VOLUME    0:05     1        TIMESERIES 3Month6Hour_Huff_Apr7
METER_23_RF      VOLUME    0:05     1        TIMESERIES 3Month6Hour_Huff_Apr7
METER_24_RF      VOLUME    0:05     1        TIMESERIES 3Month6Hour_Huff_Apr7
METER_25_RF      VOLUME    0:05     1        TIMESERIES 3Month6Hour_Huff_Apr7
METER_26_RF      VOLUME    0:05     1        TIMESERIES 3Month6Hour_Huff_Apr7
METER_27_RF      VOLUME    0:05     1        TIMESERIES 3Month6Hour_Huff_Apr7
METER_28_RF      VOLUME    0:05     1        TIMESERIES 3Month6Hour_Huff_Apr7
METER_29_RF      VOLUME    0:05     1        TIMESERIES 3Month6Hour_Huff_Apr7
METER_30_RF      VOLUME    0:05     1        TIMESERIES 3Month6Hour_Huff_Apr7
METER_31_RF      VOLUME    0:05     1        TIMESERIES 3Month6Hour_Huff_Apr7
METER_32_RF      VOLUME    0:05     1        TIMESERIES 3Month6Hour_Huff_Apr7
METER_33_RF      VOLUME    0:05     1        TIMESERIES 3Month6Hour_Huff_Apr7
METER_34_RF      VOLUME    0:05     1        TIMESERIES 3Month6Hour_Huff_Apr7
METER_35_RF      VOLUME    0:05     1        TIMESERIES 3Month6Hour_Huff_Apr7
METER_36_RF      VOLUME    0:05     1        TIMESERIES 3Month6Hour_Huff_Apr7
METER_37_RF      VOLUME    0:05     1        TIMESERIES 3Month6Hour_Huff_Apr7
METER_38_RF      VOLUME    0:05     1        TIMESERIES 3Month6Hour_Huff_Apr7
METER_39_RF      VOLUME    0:05     1        TIMESERIES 3Month6Hour_Huff_Apr7
METER_40_RF      VOLUME    0:05     1        TIMESERIES 3Month6Hour_Huff_Apr7
METER_41_RF      VOLUME    0:05     1        TIMESERIES 3Month6Hour_Huff_Apr7
METER_42_RF      VOLUME    0:05     1        TIMESERIES 3Month6Hour_Huff_Apr7
METER_43_RF      VOLUME    0:05     1        TIMESERIES 3Month6Hour_Huff_Apr7
METER_44_RF      VOLUME    0:05     1        TIMESERIES 3Month6Hour_Huff_Apr7
METER_45_RF      VOLUME    0:05     1        TIMESERIES 3Month6Hour_Huff_Apr7
METER_46_RF      VOLUME    0:05     1        TIMESERIES 3Month6Hour_Huff_Apr7
METER_47_RF      VOLUME    0:05     1        TIMESERIES 3Month6Hour_Huff_Apr7
METER_48_RF      VOLUME    0:05     1        TIMESERIES 3Month6Hour_Huff_Apr7
METER_49_RF      VOLUME    0:05     1        TIMESERIES 3Month6Hour_Huff_Apr7
METER_51_RF      VOLUME    0:05     1        TIMESERIES 3Month6Hour_Huff_Apr7
METER_52_RF      VOLUME    0:05     1        TIMESERIES 3Month6Hour_Huff_Apr7
METER_53_RF      VOLUME    0:05     1        TIMESERIES 3Month6Hour_Huff_Apr7
METER_55_RF      VOLUME    0:05     1        TIMESERIES 3Month6Hour_Huff_Apr7
METER_56_RF      VOLUME    0:05     1        TIMESERIES 3Month6Hour_Huff_Apr7
METER_57_RF      VOLUME    0:05     1        TIMESERIES 3Month6Hour_Huff_Apr7
METER_58_RF      VOLUME    0:05     1        TIMESERIES 3Month6Hour_Huff_Apr7
METER_59_RF      VOLUME    0:05     1        TIMESERIES 3Month6Hour_Huff_Apr7
METER_60_RF      VOLUME    0:05     1        TIMESERIES 3Month6Hour_Huff_Apr7
METER_61_RF      VOLUME    0:05     1        TIMESERIES 3Month6Hour_Huff_Apr7
METER_62_RF      VOLUME    0:05     1        TIMESERIES 3Month6Hour_Huff_Apr7
METER_63_RF      VOLUME    0:05     1        TIMESERIES 3Month6Hour_Huff_Apr7
METER_M18229_RF  VOLUME    0:05     1        TIMESERIES 3Month6Hour_Huff_Apr7
METER_O26011_RF  VOLUME    0:05     1        TIMESERIES 3Month6Hour_Huff_Apr7
METER_R06010_RF  VOLUME    0:05     1        TIMESERIES 3Month6Hour_Huff_Apr7
METER_T02014_RF  VOLUME    0:05     1        TIMESERIES 3Month6Hour_Huff_Apr7
RG_11            VOLUME    0:05     1        TIMESERIES 3Month6Hour_Huff_Apr7
RG_12            VOLUME    0:05     1        TIMESERIES 3Month6Hour_Huff_Apr7
RG_13            VOLUME    0:05     1        TIMESERIES 3Month6Hour_Huff_Apr7
RG_14            VOLUME    0:05     1        TIMESERIES 3Month6Hour_Huff_Apr7
RG_15            VOLUME    0:05     1        TIMESERIES 3Month6Hour_Huff_Apr7
RG_16            VOLUME    0:05     1        TIMESERIES 3Month6Hour_Huff_Apr7
RG_17            VOLUME    0:05     1        TIMESERIES 3Month6Hour_Huff_Apr7
RG_18            VOLUME    0:05     1        TIMESERIES 3Month6Hour_Huff_Apr7
RG_19            VOLUME    0:05     1        TIMESERIES 3Month6Hour_Huff_Apr7
RG_J03012_AVG    VOLUME    0:05     1        TIMESERIES 3Month6Hour_Huff_Apr7

[SUBCATCHMENTS]
;;Name           Rain Gage        Outlet           Area     %Imperv  Width    %Slope   CurbLen  SnowPack        
;;-------------- ---------------- ---------------- -------- -------- -------- -------- -------- ----------------
I11010#1         RG_14            I11010           28.5     20       400      0.99     0                        
I11017#1         RG_14            I11017           15.3     20       300      0.99     0                        
I11060#1         RG_14            I11060           35.7     20       250      0.99     0                        
I11120#1         RG_14            I11120           28.3     20       300      0.99     0                        
J02075#1         RG_14            J02075           63.9     10       1500     0.22     0                        
J02108#1         RG_J03012_AVG    J02108           20.19    30       700      0.16     0                        
J03016#1         RG_J03012_AVG    J03016           151.44   20       100      0.16     0                        
J03022#1         RG_J03012_AVG    J03022           28.25    20       75       0.15     0                        
J03033#1         RG_J03012_AVG    J03033           9.64     20       100      0.16     0                        
J03040#1         RG_J03012_AVG    J03040           21.20    20       100      0.16     0                        
J03051#1         RG_J03012_AVG    J03051           6.20     20       100      0.16     0                        
J03070#1         RG_J03012_AVG    J03070           6.44     20       100      0.16     0                        
J03079#1         RG_J03012_AVG    J03079           9.69     20       100      0.16     0                        
J03087#1         RG_J03012_AVG    J03087           22       20       100      0.16     0                        
J03098#1         RG_J03012_AVG    J03098           5.94     30       700      0.16     0                        
J03112#1         RG_J03012_AVG    J03112           6.54     30       700      0.16     0                        
J03119#1         RG_J03012_AVG    J03119           6.14     20       75       0.15     0                        
J03136#1         RG_J03012_AVG    J03136           15.37    20       75       0.15     0                        
J03152#1         RG_J03012_AVG    J03152           9.30     20       75       0.15     0                        
J03226#1         RG_J03012_AVG    J03226           6.45     30       700      0.16     0                        
J03265#1         RG_J03012_AVG    J03265           14.15    20       190      0.16     0                        
;K06/M10 2011 PER
J06103#1         MainSt_RG        J06103           28.5     15       446      0.3      0                        
;K06/M10 2011 PER
J06113#1         MainSt_RG        J06113           62.8     18       936      0.3      0                        
;K06/M10 2011 PER
J06154#1         MainSt_RG        J06154           16.4     12       338      0.3      0                        
;K06/M10 2011 PER
J06170#1         MainSt_RG        J06170           23.3     12       570      0.3      0                        
;K06/M10 2011 PER
J06177#1         MainSt_RG        J06227           5.5      28       612      0.3      0                        
;K06/M10 2011 PER
J06214#1         MainSt_RG        J06214           26.2     12       427      0.3      0                        
J07093#1         RG_14            J07093           18.8     20       200      0.99     0                        
;K06/M10 2011 PER
J10103#1         MainSt_RG        J10103           41.8     15       1349     1.2      0                        
;K06/M10 2011 PER
J10165#1         MainSt_RG        J10165           25.2     20       1482     1.2      0                        
J11108#1         RG_14            J11108           20.5     20       250      0.99     0                        
J11125#1         RG_14            J11125           33.5     20       300      0.99     0                        
J11151#1         RG_14            J11151           23.5     20       200      0.99     0                        
J11156#1         RG_14            J11156           7.6      20       100      0.99     0                        
J11185#1         RG_14            J11185           15.2     20       150      0.99     0                        
;K06/M10 2011 PER
J14244#1         MainSt_RG        J14336           10.1     20       938      0.6      0                        
;K06/M10 2011 PER
J14315#1         MainSt_RG        J14320           19.3     20       917      0.58     0                        
K02150#1         RG_14            K02150           80.1     20       890      0.55     0                        
K02199#1         RG_11            K02199           36.5     20       450      0.55     0                        
K03101#1         RG_14            K03101           61.5     20       800      0.55     0                        
K03105#1         RG_14            K03105           1.7      7        85       1.5      0                        
K03106#1         RG_14            K03106           2.2      7        95       1.5      0                        
K03110#1         RG_14            K03110           10.6     7        185      1.5      0                        
K03119#1         RG_14            K03119           4.8      7        165      1.5      0                        
K03120#1         RG_14            K03120           2.8      7        100      1.5      0                        
K03140#1         RG_14            K03140           18.58    20       351      0.55     0                        
K03249#1         RG_19            K03249           19.7     20       392      0.55     0                        
K03293#1         RG_19            K03293           4.3      20       240      0.55     0                        
K06006#1         RG_11            K06006           11.4     20       230      0.55     0                        
;K06/M10 2011 PER
K06085#1         MainSt_RG        K06086           21.2     28       1201     1.2      0                        
;K06/M10 2011 PER
K06126#1         MainSt_RG        K06126           23.7     20       1437     0.8      0                        
;K06/M10 2011 PER
K06175#1         MainSt_RG        K06175           11.3     12       397      0.3      0                        
;K06/M10 2011 PER
K06211#1         MainSt_RG        K06211           16.3     12       477      0.3      0                        
;K06/M10 2011 PER
K06228#1         MainSt_RG        K06228           7        12       312      0.3      0                        
K06275#1         RG_11            K06275           37.9     20       288.9    0.78     0                        
K07010#1         RG_19            K07010           3.4      8        300      2.46     0                        
K07021#1         RG_19            K07021           7.7      20       400      0.55     0                        
K07029#1         RG_14            K07029           3.5      8        530      0.69     0                        
K07032#1         RG_14            K07032           8.8      8        870      0.69     0                        
K07040#1         RG_14            K07040           8.5      8        300      0.69     0                        
K07043#1         RG_14            K07043           4.6      8        500      0.69     0                        
K07055#1         RG_14            K07055           3        15       330      0.69     0                        
K07057#1         RG_19            K07057           4.8      15       330      0.69     0                        
K07078#1         RG_14            K07078           3.44     20       63       0.55     0                        
K07089#1         RG_19            K07089           9.3      15       560      0.69     0                        
K07110#1         RG_19            K07110           4.3      8        610      2.46     0                        
K07113#1         RG_19            K07113           20.6     14       1000     1.1      0                        
K07142#1         RG_19            K07142           1.6      15       360      0.69     0                        
K07151#1         RG_19            K07151           8.2      15       300      0.69     0                        
K07163#1         RG_19            K07163           6.7      15       450      0.69     0                        
K07267#1         RG_19            K07267           15.9     20       418      0.55     0                        
;K06/M10 2011 PER
K10006#1         MainSt_RG        K10006           4.5      28       553      0.85     0                        
;K06/M10 2011 PER
K10009#1         MainSt_RG        K10087           17.3     10       1228     0.0095   0                        
;K06/M10 2011 PER
K10012#1         MainSt_RG        K10012           7.7      14       819      0.8      0                        
;K06/M10 2011 PER
K10013#1         MainSt_RG        K10013           30.1     25       1145     0.88     0                        
;K06/M10 2011 PER
K10047#1         MainSt_RG        K10105           37.8     10       1283     0.013    0                        
;K06/M10 2011 PER
K10167#1         MainSt_RG        K10233           46.8     15       1428     0.0067   0                        
;K06/M10 2011 PER
K10270#1         MainSt_RG        K10270           64.8     13       2376     0.0015   0                        
;K06/M10 2011 PER
K10364#1         MainSt_RG        K10364           14.1     28       980      0.78     0                        
;K06/M10 2011 PER
K10389#1         MainSt_RG        K10389           1        28       261      0.26     0                        
K11058#1         RG_13            K11058           19.9     10       560      2.5      0                        
K11059#1         RG_13            K11059           11.5     10       200      2.5      0                        
K11075#1         RG_13            K11075           6.2      10       120      2.5      0                        
K11098#1         RG_13            K11098           20.2     10       400      2.5      0                        
K11116#1         RG_13            K11116           13.6     20       340      2.5      0                        
K11135#1         RG_19            K11135           10.7     8        390      2.46     0                        
K11137#1         RG_19            K11137           7.8      8        610      2.46     0                        
K11172#1         RG_13            K11172           10.1     20       200      2.5      0                        
;K06/M10 2011 PER
K14038#1         MainSt_RG        K14038           182.6    18       2820     0.15     0                        
;K06/M10 2011 PER
K14139#1         MainSt_RG        K14139           128.6    13       3347     0.34     0                        
K15044#1         RG_13            K15044           3.3      20       300      0.91     0                        
K15051#1         RG_13            K15051           9.7      20       150      0.91     0                        
K15065#1         RG_13            K15065           5.9      20       100      1.5      0                        
K15078#1         RG_13            K15078           7.6      20       385      1.5      0                        
L02001#1         RG_11            L02001           5.5      35       1426.65  0.6      0                        
L02112#1         RG_19            L02112           14.4     25       200      1        0                        
L02143#1         RG_11            L02143           39.5     20       350      1        0                        
L02178#1         RG_11            L02178           8        20       100      1        0                        
L02212#1         RG_11            L02212           1.6      15       340.489  0.5      0                        
L02220#1         RG_11            L02220           3.5      35       180      0.4      0                        
L02250#1         RG_11            L02250           8.5      35       210      0.4      0                        
L02264#1         RG_11            L02264           3.9      35       1049.38  0.7      0                        
L02415#1         RG_11            L02415           22.4     20       300      1        0                        
L03018#1         RG_19            L03018           13.4     20       340      0.55     0                        
L03045#1         RG_19            L03045           8.3      20       250      0.55     0                        
L03073#1         RG_19            L03073           16.3     20       400      0.55     0                        
L03152#1         RG_19            L03152           13.8     20       230      0.55     0                        
L03159#1         RG_19            L03159           6.1      25       100      1        0                        
L03180#1         RG_19            L03180           3        20       800      0.55     0                        
L03207#1         RG_19            L03207           17.9     25       300      1        0                        
L03229#1         RG_19            L03229           16.8     20       340      0.55     0                        
L03269#1         RG_19            L03269           4.9      20       800      0.55     0                        
L03271#1         RG_19            L03271           12.8     20       200      0.55     0                        
L03290#1         RG_19            L03290           16       20       300      0.55     0                        
L06002#1         RG_11            L06002           0.7      60       1297.17  0.5      0                        
L06018#1         RG_11            L06018           5.66     60       913.5    0.4      0                        
L06022#1         RG_11            L06022           4.7      35       204      0.4      0                        
L06036#1         RG_11            L06036           6.5      35       228      0.4      0                        
L06041#1         RG_11            L06041           7.5      35       216      0.4      0                        
L06112#1         RG_11            L06112           14       20       900      1.6      0                        
L06172#1         RG_11            L06172           7.1      15       420      0.4      0                        
L06203#1         RG_11            L06203           11.5     20       900      1.6      0                        
L06222#1         RG_11            L06222           6        60       125      0.4      0                        
L06253#1         RG_11            L06253           3.9      60       130      0.4      0                        
L06277#1         RG_11            L06277           8        60       180      0.4      0                        
L06366#1         RG_11            L06366           6.8      60       970.753  0.5      0                        
L06438.1#1       RG_11            L06438.1         13.1     75       250      1        0                        
L06447#1         RG_11            L06447           15.6     12       288.3    1.3      0                        
L06448#1         RG_11            L06448           9        35       222      0.4      0                        
L07003#1         RG_19            L07003           16       20       555      2.5      0                        
L07007#1         RG_19            L07007           14.1     15       680      0.69     0                        
L07008#1         RG_19            L07008           3.4      15       160      0.69     0                        
L07012#1         RG_19            L07012           7.5      15       420      0.69     0                        
L07075#1         RG_19            L07075           5.7      20       400      0.55     0                        
L07077#1         RG_19            L07077           12.9     20       340      0.55     0                        
L07116#1         RG_19            L07116           19.9     20       300      0.55     0                        
L07122#1         RG_19            L07122           4        20       320      0.55     0                        
L07136#1         RG_19            L07136           6.8      20       200      0.55     0                        
L07142#1         RG_19            L07142           13.2     20       250      0.55     0                        
L07166#1         RG_19            L07166           10       15       500      0.69     0                        
L07169#1         RG_19            L07169           3.2      15       160      0.69     0                        
L07176#1         RG_19            L07176           7        15       490      0.69     0                        
L07195#1         RG_19            L07195           4.7      15       280      0.69     0                        
L07201#1         RG_19            L07201           4.1      20       90       0.55     0                        
L07206#1         RG_19            L07206           3.1      20       90       0.55     0                        
L07212#1         RG_19            L07212           5        20       157      0.55     0                        
L07245#1         RG_19            L07245           7.7      20       230      0.55     0                        
L07248#1         RG_19            L07248           8.4      20       340      0.55     0                        
;K06/M10 2011 PER
L10028#1         MainSt_RG        M10139           34.5     30       1226     0.45     0                        
;K06/M10 2011 PER
L10154#1         MainSt_RG        L10154           59.6     25       2279     0.011    0                        
;K06/M10 2011 PER
L10323#1         MainSt_RG        L10323           62.1     22       2326     0.0012   0                        
L11005#1         RG_19            L11005           17.3     20       450      2.5      0                        
L11008#1         RG_19            L11008           7.4      20       280      2.5      0                        
L11013#1         RG_13            L11013           8.2      20       310      2.5      0                        
L11014#1         RG_13            L11014           15.7     20       235      2.5      0                        
L11071#1         RG_13            L11071           30.2     20       400      2.5      0                        
L11083#1         RG_13            L11083           3.7      20       100      2.5      0                        
L11101#1         RG_13            L11101           6        20       100      2.5      0                        
L11150#1         RG_13            L11150           13.4     20       500      2.5      0                        
L11159#1         RG_13            L11159           11.3     20       560      2.5      0                        
L11211#1         RG_19            L11211           11.8     20       430      2.5      0                        
L11221#1         RG_13            L11221           14.5     20       340      2.5      0                        
L11223#1         RG_13            L11223           6.8      20       120      2.5      0                        
L11240#1         RG_19            L11240           9.7      20       340      2.5      0                        
;K06/M10 2011 PER
L14144#1         MainSt_RG        L14144           47.4     26       2032     0.3      0                        
;K06/M10 2011 PER
L14251#1         MainSt_RG        L14238           51.8     27       2125     0.65     0                        
;K06/M10 2011 PER
L14344#1         MainSt_RG        L14344           31.4     25       1170     0.5      0                        
L15012#1         RG_13            L15012           15.4     20       240      2.5      0                        
L15026#1         RG_13            L15026           4.5      0.3      10       0.91     0                        
L15065#1         RG_13            L15065           8.4      20       375      1.5      0                        
L15087#1         RG_13            L15087           12.4     20       400      1.5      0                        
L15095#1         RG_13            L15095           17.3     20       400      1.5      0                        
L15172#1         RG_13            L15172           23.4     10       415      1.5      0                        
L15191#1         RG_13            L15191           13.5     10       240      1.5      0                        
L15201#1         RG_13            L15201           13.5     0.3      20       0.91     0                        
L15214#1         RG_13            L15214           12.3     20       430      1.5      0                        
L15251#1         RG_13            L15251           5.7      0.3      25       0.91     0                        
L15301#1         RG_13            L15301           35.9     10       380      1.5      0                        
L15302#1         RG_13            L15302           15       20       430      1.5      0                        
L19020#1         RG_13            L19020           12.2     10       170      1.37     0                        
L19028#1         RG_13            L19028           13.3     10       180      1.26     0                        
L19072#1         RG_13            L19072           47.6     15       210      1.26     0                        
L19171#1         RG_13            L19171           6.5      15       120      1.37     0                        
L19184#1         RG_13            L19184           10.8     15       190      1.26     0                        
L19190#1         RG_13            L19190           2.5      15       80       1.37     0                        
L19200#1         RG_13            L19200           6.8      15       180      1.37     0                        
L19219#1         RG_13            L19219           12.1     15       170      1.26     0                        
L19226#1         RG_13            L19226           14.5     15       150      1.26     0                        
L19254#1         RG_13            L19254           25.4     8        250      1.26     0                        
M02011#1         RG_19            M02011           6.2      25       732.621  0.4      0                        
M02211#1         RG_19            M02211           12.48    18       1500     1.4      0                        
M02217#1         RG_19            M02217           10.04    18       1000     1.4      0                        
M02243#1         RG_19            M02243           4.32     18       650      1.4      0                        
M02250#1         RG_19            M02250           5.44     18       850      1.4      0                        
M02319#1         RG_12            M02319           5.61     18       1000     1.4      0                        