[TITLE]
;;Project Title/Notes

[OPTIONS]
;;Option             Value
FLOW_UNITS           CFS
INFILTRATION         CURVE_NUMBER
FLOW_ROUTING         KINWAVE
LINK_OFFSETS         DEPTH
MIN_SLOPE            0
ALLOW_PONDING        NO
SKIP_STEADY_STATE    NO

START_DATE           01/01/2002
START_TIME           00:00:00
REPORT_START_DATE    01/01/2002
REPORT_START_TIME    00:00:00
END_DATE             01/02/2002
END_TIME             00:00:00
SWEEP_START          01/01
SWEEP_END            12/31
DRY_DAYS             5.000000
REPORT_STEP          00:05:00
WET_STEP             00:05:00
DRY_STEP             00:05:00
ROUTING_STEP         0:00:05 

INERTIAL_DAMPING     NONE
NORMAL_FLOW_LIMITED  BOTH
FORCE_MAIN_EQUATION  H-W
VARIABLE_STEP        0.75
LENGTHENING_STEP     0
MIN_SURFAREA         12.557
MAX_TRIALS           8
HEAD_TOLERANCE       0.005
SYS_FLOW_TOL         5
LAT_FLOW_TOL         5
MINIMUM_STEP         0.5
THREADS              1

[EVAPORATION]
;;Data Source    Parameters
;;-------------- ----------------
CONSTANT         0.000000
DRY_ONLY         NO

[RAINGAGES]
;;Name           Format    Interval SCF      Source    
;;-------------- --------- ------ ------ ----------
RG1              INTENSITY 0.100000 1.000000 TIMESERIES 100_YR          

[SUBCATCHMENTS]
;;Name           Rain Gage        Outlet           Area     %Imperv  Width    %Slope   CurbLen  SnowPack        
;;-------------- ---------------- ---------------- -------- -------- -------- -------- -------- ----------------
; GIS Basin ID 0
0                RG1              2014             94.418927 25.000000 500.000000 0.500000 0.000000                 
; GIS Basin ID 1
1                RG1              1998             135.738384 25.000000 500.000000 0.500000 0.000000                 
; GIS Basin ID 10
10               RG1              3020             30.901584 25.000000 500.000000 0.500000 0.000000                 
; GIS Basin ID11
11               RG1              2355             47.158337 25.000000 500.000000 0.500000 0.000000                 
; GIS Basin ID 12
12               RG1              1792             87.720537 25.000000 500.000000 0.500000 0.000000                 
; GIS Basin ID 13
13               RG1              1800             101.870202 25.000000 500.000000 0.500000 0.000000                 
; GIS Basin ID14
14               RG1              2013             0.955442 25.000000 500.000000 0.500000 0.000000                 
; GIS Basin ID 15
15               RG1              1804             14.762882 25.000000 500.000000 0.500000 0.000000                 
; GIS Basin ID 16
16               RG1              2013             12.009510 25.000000 500.000000 0.500000 0.000000                 
; GIS Basin ID 17
17               RG1              3010             23.708656 25.000000 500.000000 0.500000 0.000000                 
; GIS Basin ID 18
18               RG1              791              5.929271 25.000000 500.000000 0.500000 0.000000                 
; GIS Basin ID 19
19               RG1              787              15.088862 25.000000 500.000000 0.500000 0.000000                 
; GIS Basin ID 2
2                RG1              2005             107.420916 25.000000 500.000000 0.500000 0.000000                 
; GIS Basin ID 20
20               RG1              1759             11.101223 25.000000 500.000000 0.500000 0.000000                 
; GIS Basin ID 21
21               RG1              1436             13.849112 25.000000 500.000000 0.500000 0.000000                 
; GIS Basin ID 22
22               RG1              1792             78.586774 25.000000 500.000000 0.500000 0.000000                 
; GIS Basin ID 23
23               RG1              1844             15.326786 25.000000 500.000000 0.500000 0.000000                 
; GIS Basin ID 24
24               RG1              1842             11.014052 25.000000 500.000000 0.500000 0.000000                 
; GIS Basin ID 25
25               RG1              1837             16.463164 25.000000 500.000000 0.500000 0.000000                 
; GIS Basin ID 26
26               RG1              1845             7.200675 25.000000 500.000000 0.500000 0.000000                 
; GIS Basin ID 27
27               RG1              DIV-10           49.777457 25.000000 500.000000 0.500000 0.000000                 
; GIS Basin ID 3
3                RG1              2012             57.475084 25.000000 500.000000 0.500000 0.000000                 
; GIS Basin ID 4
4                RG1              2003             116.040000 25.000000 500.000000 0.500000 0.000000                 
; GIS Basin ID 5
5                RG1              399              16.470733 25.000000 500.000000 0.500000 0.000000                 
; GIS Basin ID 6
6                RG1              1729             37.304854 25.000000 500.000000 0.500000 0.000000                 
; GIS Basin ID 7
7                RG1              3020             21.206037 25.000000 500.000000 0.500000 0.000000                 
; GIS Basin ID 8
8                RG1              2428             34.575755 25.000000 500.000000 0.500000 0.000000                 
; GIS Basin ID 9
9                RG1              895              44.006487 25.000000 500.000000 0.500000 0.000000                 
; Split upper basin 4
SUB-16           RG1              3000             9.900000 25.000000 500.000000 0.500000 0.000000                 

[SUBAREAS]
;;Subcatchment   N-Imperv   N-Perv     S-Imperv   S-Perv     PctZero    RouteTo    PctRouted 
;;-------------- ---------- ---------- ---------- ---------- ---------- ---------- ----------
0                0.100000   0.001000   0.050000   0.000000   25.000000  OUTLET    
1                0.100000   0.001000   0.050000   0.000000   25.000000  OUTLET    
10               0.100000   0.001000   0.050000   0.000000   25.000000  OUTLET    
11               0.100000   0.001000   0.050000   0.000000   25.000000  OUTLET    
12               0.100000   0.001000   0.050000   0.000000   25.000000  OUTLET    
13               0.100000   0.001000   0.050000   0.000000   25.000000  OUTLET    
14               0.100000   0.001000   0.050000   0.000000   25.000000  OUTLET    
15               0.100000   0.001000   0.050000   0.000000   25.000000  OUTLET    
16               0.100000   0.001000   0.050000   0.000000   25.000000  OUTLET    
17               0.100000   0.001000   0.050000   0.000000   25.000000  OUTLET    
18               0.100000   0.001000   0.050000   0.000000   25.000000  OUTLET    
19               0.100000   0.001000   0.050000   0.000000   25.000000  OUTLET    
2                0.100000   0.001000   0.050000   0.000000   25.000000  OUTLET    
20               0.100000   0.001000   0.050000   0.000000   25.000000  OUTLET    
21               0.100000   0.001000   0.050000   0.000000   25.000000  OUTLET    
22               0.100000   0.001000   0.050000   0.000000   25.000000  OUTLET    
23               0.100000   0.001000   0.050000   0.000000   25.000000  OUTLET    
24               0.100000   0.001000   0.050000   0.000000   25.000000  OUTLET    
25               0.100000   0.001000   0.050000   0.000000   25.000000  OUTLET    
26               0.100000   0.001000   0.050000   0.000000   25.000000  OUTLET    
27               0.100000   0.001000   0.050000   0.000000   25.000000  OUTLET    
3                0.100000   0.001000   0.050000   0.000000   25.000000  OUTLET    
4                0.100000   0.001000   0.050000   0.000000   25.000000  OUTLET    
5                0.100000   0.001000   0.050000   0.000000   25.000000  OUTLET    
6                0.100000   0.001000   0.050000   0.000000   25.000000  OUTLET    
7                0.100000   0.001000   0.050000   0.000000   25.000000  OUTLET    
8                0.100000   0.001000   0.050000   0.000000   25.000000  OUTLET    
9                0.100000   0.001000   0.050000   0.000000   25.000000  OUTLET    
SUB-16           0.100000   0.001000   0.050000   0.000000   25.000000  OUTLET    

[INFILTRATION]
;;Subcatchment   CurveNum              DryTime   
;;-------------- ---------- ---------- ----------
0                96.000000  0.500000   14.000000 
1                90.000000  0.500000   14.000000 
10               93.000000  0.500000   14.000000 
11               92.000000  0.500000   14.000000 
12               97.000000  0.500000   14.000000 
13               97.000000  0.500000   14.000000 
14               95.000000  0.500000   14.000000 
15               93.000000  0.500000   14.000000 
16               91.000000  0.500000   14.000000 
17               92.000000  0.500000   14.000000 
18               87.000000  0.500000   14.000000 
19               91.000000  0.500000   14.000000 
2                94.000000  0.500000   14.000000 
20               86.000000  0.500000   14.000000 
21               91.000000  0.500000   14.000000 
22               96.000000  0.500000   14.000000 
23               91.000000  0.500000   14.000000 
24               94.000000  0.500000   14.000000 
25               94.000000  0.500000   14.000000 
26               92.000000  0.500000   14.000000 
27               93.000000  0.500000   14.000000 
3                94.000000  0.500000   14.000000 
4                94.000000  0.500000   14.000000 
5                93.000000  0.500000   14.000000 
6                93.000000  0.500000   14.000000 
7                92.000000  0.500000   14.000000 
8                92.000000  0.500000   14.000000 
9                93.000000  0.500000   14.000000 
SUB-16           94.000000  0.500000   14.000000 

[JUNCTIONS]
;;Name           Elevation  MaxDepth   InitDepth  SurDepth   Aponded   
;;-------------- ---------- ---------- ---------- ---------- ----------
; MH-1
1029             4521.930000 4.469902   0.000000   0.500000   200.000000
; MH-4
1035             4520.460000 3.489707   0.000000   0.000000   0.000000  
; MH-5
1037             4521.220000 5.179902   0.000000   0.000000   0.000000  
; MH-6
1039             4520.570000 5.829902   0.000000   0.000000   0.000000  
; MH-12
1049             4558.000000 2.648926   0.000000   0.000000   0.000000  
; MH-13
1050             4556.000000 3.558594   0.000000   0.000000   0.000000  
; MH-14
1052             4556.400000 4.234766   0.000000   0.000000   0.000000  
; MH-18
1063             4519.610000 3.510117   0.000000   0.000000   0.000000  
; MH-20
1067             4562.000000 3.471680   0.000000   0.000000   0.000000  
; MH-21
1069             4543.800000 3.151660   0.000000   0.000000   0.000000  
; MH-22
1071             4519.510000 3.610117   0.000000   0.000000   0.000000  
; MH-28
1092             4521.250000 2.864746   0.000000   0.000000   0.000000  
; MH-30
1101             4519.190000 3.930117   0.000000   0.000000   0.000000  
; MH-34
1110             4520.340000 2.780117   0.000000   0.000000   0.000000  
; MH-38
1131             4518.910000 5.537266   0.000000   0.000000   0.000000  
; MH-42
1170             4587.130000 0.928105   0.000000   0.500000   200.000000
1410             4510.230000 10.005000  0.000000   0.000000   0.000000  
1414             4513.300000 9.835000   0.000000   0.000000   0.000000  
1762             4582.100000 5.443457   0.000000   0.500000   200.000000
1764             4573.060000 5.440488   0.000000   0.500000   200.000000
1766             4566.590000 5.280605   0.000000   0.000000   0.000000  
1767             4563.350000 5.690039   0.000000   0.000000   0.000000  
1792             4502.980000 11.594000  0.000000   0.000000   0.000000  
1800             4518.198000 21.005000  0.000000   0.000000   0.000000  
1801             4517.707000 11.794000  0.000000   0.000000   0.000000  
1804             4522.269000 16.914000  0.000000   0.000000   0.000000  
1806             4523.149000 9.494000   0.000000   0.000000   0.000000  
1808             4524.759000 8.565000   0.000000   0.000000   0.000000  
1810             4525.939000 8.625000   0.000000   0.000000   0.000000  
1846             4532.990000 4.103000   0.000000   0.000000   0.000000  
; Assumed Depth
1847             4539.000000 5.000000   0.000000   0.000000   0.000000  
; MH-82
1861             4518.300000 1.539844   0.000000   0.000000   0.000000  
; Assumed Depth
1866             4514.000000 6.497000   0.000000   0.000000   0.000000  
; Assumed Depth
1867             4513.500000 6.615000   0.000000   0.000000   0.000000  
1875             4534.440000 10.527000  0.000000   0.000000   0.000000  
1876             4546.640000 10.524000  0.000000   0.000000   0.000000  
1884             4536.500000 19.479000  0.000000   0.000000   0.000000  
1893             4588.920000 6.223000   0.000000   0.000000   0.000000  
; Assumed Depth and Invert
1894             4583.549805 5.843195   0.000000   0.000000   0.000000  
; Rim Ele was raised due to node flooding
1896             4519.300000 12.700000  0.000000   1.000000   200.000000
1898             4518.788000 15.602000  0.000000   0.000000   0.000000  
1923             4613.680000 7.281000   0.000000   0.000000   0.000000  
1954             4524.660000 6.267000   0.000000   0.000000   0.000000  
; MH-85
1965             4598.152000 8.848000   0.000000   0.500000   200.000000
2069             4518.800000 6.140000   0.000000   0.000000   0.000000  
2076             4518.300000 6.048000   0.000000   0.000000   0.000000  
; Assumed Depth
2087             4519.000000 5.175000   0.000000   0.000000   0.000000  
; Assumed Depth
2169             4518.000000 5.000000   0.000000   0.000000   0.000000  
; Assumed Depth
2171             4517.500000 10.000000  0.000000   0.000000   0.000000  
; Assumed Depth
2242             4534.000000 11.302000  0.000000   0.000000   0.000000  
2255             4555.460000 10.359000  0.000000   0.000000   0.000000  
; Assumed Depth
2256             4563.000000 2.000000   0.000000   0.000000   0.000000  
; Assumed Depth
2266             4549.299805 5.894195   0.000000   0.000000   0.000000  
; Assumed Depth
2339             4592.000000 5.168000   0.000000   0.000000   0.000000  
; Assumed Depth
2347             4600.000000 6.500000   0.000000   0.000000   0.000000  
; Assumed Depth
2349             4590.000000 6.068000   0.000000   0.000000   0.000000  
; Assumed Depth
2358             4552.000000 8.000000   0.000000   0.000000   0.000000  
; Assumed Depth
2369             4532.750000 5.250000   0.000000   0.000000   0.000000  
; Assumed Depth
2370             4531.000000 4.468000   0.000000   0.000000   0.000000  
238              4580.210000 7.362000   0.000000   0.500000   200.000000
; Assumed Depth
2381             4523.000000 5.000000   0.000000   0.000000   0.000000  
; Assumed Depth
2382             4518.799805 5.231195   0.000000   0.000000   0.000000  
243              4587.230000 3.980938   0.000000   0.500000   200.000000
272              4522.610000 9.859000   0.000000   1.000000   200.000000
341              4600.140000 5.538000   0.000000   0.000000   0.000000  
375              4541.990000 6.010000   0.000000   0.500000   200.000000
384              4518.290000 7.527871   0.000000   0.000000   0.000000  
385              4518.770000 4.591328   0.000000   0.000000   0.000000  
386              4519.510000 3.610117   0.000000   0.000000   0.000000  
387              4519.710000 3.410117   0.000000   0.000000   0.000000  
392              4520.600000 5.421973   0.000000   0.000000   0.000000  
439              4519.490000 4.836660   0.000000   0.000000   0.000000  
562              4572.540000 3.060098   0.000000   0.500000   200.000000
592              4520.370000 2.750117   0.000000   0.000000   0.000000  
597              4518.450000 6.682324   0.000000   0.000000   0.000000  
662              4547.130000 5.421270   0.000000   0.500000   200.000000
676              4575.360000 3.039414   0.000000   0.500000   200.000000
787              4626.430000 5.129570   0.000000   0.500000   200.000000
788              4626.200000 4.322461   0.000000   0.500000   200.000000
791              4624.290000 4.710000   0.000000   0.000000   0.000000  
; Basin8_swManhole-11
853              4565.380000 2.696172   0.000000   0.000000   0.000000  
; Basin8_swManhole-12
854              4570.100000 2.196875   0.000000   0.000000   0.000000  
; Basin8_swManhole-13
855              4572.040000 3.327188   0.000000   0.000000   0.000000  
; Basin8_swManhole-15
857              4552.050000 3.870000   0.000000   0.000000   0.000000  
; Basin8_swManhole-16
858              4538.350000 4.500000   0.000000   0.000000   0.000000  
; Basin8_swManhole-17
859              4587.290000 12.474000  0.000000   0.500000   200.000000
; Basin8_swManhole-2
862              4548.300000 4.764453   0.000000   0.000000   0.000000  
; Basin8_swManhole-20
863              4549.410000 3.496738   0.000000   0.000000   0.000000  
; Basin8_swManhole-21
864              4553.840000 3.657559   0.000000   0.000000   0.000000  
; Basin8_swManhole-22
865              4560.260000 4.726328   0.000000   0.000000   0.000000  
; Basin8_swManhole-23
866              4576.740000 4.259512   0.000000   0.000000   0.000000  
; Basin8_swManhole-24
867              4540.240000 5.560000   0.000000   0.000000   0.000000  
; Basin8_swManhole-25
868              4538.050000 3.553516   0.000000   0.500000   200.000000
; Basin8_swManhole-26
869              4540.010000 3.876230   0.000000   0.500000   200.000000
; Basin8_swManhole-35
879              4536.200000 4.830762   0.000000   0.500000   200.000000
; Basin8_swManhole-36
880              4568.560000 4.124570   0.000000   0.000000   0.000000  
; Basin8_swManhole-38
882              4543.016000 4.984000   0.000000   0.500000   200.000000
; Basin8_swManhole-39
883              4541.020000 5.980000   0.000000   0.500000   200.000000
; Basin8_swManhole-4
884              4546.300000 5.959766   0.000000   0.000000   0.000000  
; Basin8_swManhole-40
885              4546.900000 9.100000   0.000000   0.500000   200.000000
; Basin8_swManhole-41
886              4548.000000 10.000000  0.000000   0.500000   200.000000
; Basin8_swManhole-42
887              4544.800000 5.200000   0.000000   0.000000   0.000000  
; Basin8_swManhole-43
888              4556.230000 3.550762   0.000000   0.000000   0.000000  
; Basin8_swManhole-44
889              4550.940000 4.980000   0.000000   0.000000   0.000000  
; Basin8_swManhole-50
896              4603.000000 3.000000   0.000000   0.000000   0.000000  
; Basin8_swManhole-55
901              4622.310000 4.690000   0.000000   0.500000   200.000000
; Basin8_swManhole-56
902              4621.360000 4.640000   0.000000   0.200000   200.000000
; Basin8_swManhole-57
903              4620.100000 8.263770   0.000000   0.500000   200.000000
; Basin8_swManhole-58
904              4615.600000 12.480078  0.000000   0.500000   200.000000
; Basin8_swManhole-6
906              4558.700000 5.217000   0.000000   0.000000   0.000000  
; Basin8_swManhole-7
907              4571.560000 2.317441   0.000000   0.000000   0.000000  
; Basin8_swManhole-8
908              4557.407000 5.072980   0.000000   0.000000   0.000000  
; Basin8_swManhole-9
909              4560.910000 2.407871   0.000000   0.000000   0.000000  
; New Junction
JCT-10           4528.797000 3.000000   0.000000   0.000000   0.000000  
; New Junction
JCT-12           4550.020000 3.000000   0.000000   0.000000   0.000000  
; New Junction
JCT-16           4559.830000 2.000000   0.000000   0.000000   0.000000  
; New Junction
JCT-18           4538.000000 7.000000   0.000000   0.000000   0.000000  
; New Junction
JCT-26           4596.800000 1.200000   0.000000   0.000000   0.000000  
; New Junction
JCT-28           4588.700000 5.300000   0.000000   0.000000   0.000000  
; New Junction
JCT-30           4572.874000 3.000000   0.000000   0.000000   0.000000  
; New Junction
JCT-32           4579.944000 6.056000   0.000000   0.000000   0.000000  
; New Junction
JCT-34           4518.990000 5.010000   0.000000   0.000000   0.000000  
; New Junction
JCT-36           4619.000000 2.000000   0.000000   0.000000   0.000000  
; New Junction
JCT-38           4598.000000 4.000000   0.000000   0.000000   0.000000  
; New Junction
JCT-40           4617.000000 2.000000   0.000000   0.000000   0.000000  
; New Junction
JCT-42           4530.500000 7.500000   0.000000   0.000000   0.000000  
; New Junction
JCT-46           4599.000000 9.000000   0.000000   0.000000   0.000000  
; New Junction
JCT-48           4616.650000 3.350000   0.000000   0.000000   0.000000  
; New Junction
JCT-60           0.000000   0.000000   0.000000   0.000000   0.000000  
; New Junction
JCT-62           4552.000000 3.000000   0.000000   0.000000   0.000000  
LP-2380          4521.000000 3.000000   0.000000   0.500000   200.000000
OS-2168          4507.000000 11.000000  0.000000   1.000000   200.000000

[OUTFALLS]
;;Name           Elevation  Type       Stage Data       Gated    Route To        
;;-------------- ---------- ---------- ---------------- -------- ----------------
; System Outfall
1821             4502.000000 FIXED      4503.440000      NO                       

[DIVIDERS]
;;Name           Elevation  Diverted Link    Type       Parameters
;;-------------- ---------- ---------------- ---------- ----------
; Climate Set: BASE, MH-26
1088-2           4519.800000 1088-OVERFLOW    OVERFLOW   3.320000   0.000000   0.500000   200.000000
; Climate Set: BASE, MH-31
1103             4542.130000 CDT-21           OVERFLOW   5.601000   0.000000   0.000000   0.000000  
; Climate Set: BASE, MH-41
1153             4537.360000 CDT-23           OVERFLOW   6.267000   0.000000   0.000000   0.000000  
; Climate Set: BASE
1759             4585.460000 CDT-35           OVERFLOW   21.724000  0.000000   0.000000   0.000000  
; Climate Set: BASE
1760             4585.300000 CDT-33           OVERFLOW   20.888000  0.000000   0.000000   0.000000  
; Climate Set: BASE
1763             4580.960000 CDT-37           OVERFLOW   5.612000   0.000000   0.000000   0.000000  
; Climate Set: BASE
1765             4571.730000 CDT-89           OVERFLOW   3.708000   0.000000   0.000000   0.000000  
; Climate Set: BASE
180              4541.910000 CDT-91           OVERFLOW   4.960000   0.000000   0.000000   0.000000  
; Climate Set: BASE
1805             4522.789000 ROADWAY-3        OVERFLOW   3.211000   0.000000   0.000000   0.000000  
; Climate Set: BASE
1807             4524.369000 ROADWAY-2        OVERFLOW   9.534000   0.000000   0.000000   0.000000  
; Climate Set: BASE
1809             4524.780000 ROADWAY-1        OVERFLOW   10.908000  0.000000   0.000000   0.000000  
; Climate Set: BASE
1818             4570.870000 ROADWAY-8        OVERFLOW   3.130000   0.000000   0.000000   0.000000  
; Climate Set: BASE
1895             4520.138000 ROADWAY-4        OVERFLOW   7.885000   0.000000   0.000000   0.000000  
; Climate Set: BASE
1897             4519.218000 ROADWAY-5        OVERFLOW   16.470000  0.000000   0.000000   0.000000  
; Climate Set: BASE
1952             4588.820000 ROADWAY-9        OVERFLOW   7.180000   0.000000   0.000000   0.000000  
; Climate Set: BASE
1955             4524.639000 ROADWAY-7        OVERFLOW   10.287000  0.000000   0.000000   0.000000  
; Climate Set: BASE
2428             4551.840000 CDT-15           OVERFLOW   6.160000   0.000000   0.000000   0.000000  
; Climate Set: BASE
399              4603.320000 CDT-57           OVERFLOW   5.504000   0.000000   0.000000   0.000000  
; Climate Set: BASE
416              4603.060000 CDT-75           OVERFLOW   4.320000   0.000000   0.000000   0.000000  
; Climate Set: BASE
589              4523.500000 CDT-69           OVERFLOW   5.968000   0.000000   0.500000   200.000000
; Climate Set: BASE
792              4624.110000 CDT-87           OVERFLOW   4.890000   0.000000   0.000000   0.000000  
; Climate Set: BASE, Basin8_swManhole-1
851              4550.260000 CDT-17           OVERFLOW   6.740000   0.000000   0.000000   0.000000  
; Climate Set: BASE, Basin8_swManhole-18
860              4538.180000 CDT-47           OVERFLOW   5.449000   0.000000   0.000000   0.000000  
; Climate Set: BASE, Basin8_swManhole-19
861              4536.890000 CDT-49           OVERFLOW   4.630000   0.000000   0.000000   0.000000  
; Climate Set: BASE, Basin8_swManhole-27
870              4532.470000 CDT-27           OVERFLOW   6.193000   0.000000   0.000000   0.000000  
; Climate Set: BASE, Basin8_swManhole-5
895              4544.605000 CDT-19           OVERFLOW   5.375000   0.000000   0.000000   0.000000  
; Climate Set: BASE, Basin8_swManhole-59
905              4625.220000 CDT-83           OVERFLOW   3.780000   0.000000   0.000000   0.000000  
; Climate Set: BASE, New Divider
DIV-10           4529.975000 CDT-29           OVERFLOW   4.025000   0.000000   0.000000   0.000000  
; Climate Set: BASE
DIV-170          4548.790000 170-OVERFLOW     OVERFLOW   5.210000   0.000000   0.000000   0.000000  
; Climate Set: BASE, New Junction
JCT-24           4598.000000 CDT-73           OVERFLOW   2.000000   0.000000   0.000000   0.000000  

[STORAGE]
;;Name           Elev.    MaxDepth   InitDepth  Shape      Curve Name/Params            N/A      Fevap    Psi      Ksat     IMD     
;;-------------- -------- ---------- ----------- ---------- ---------------------------- -------- --------          -------- --------
; Sage Valley Detention R2
1436             4555.000000 10.000000  0.000000   TABULAR    SAGE_VALLEY_R2               0.000000 0.000000
; I-90 Inadvertent Detention 1
1729             4602.000000 8.000000   0.000000   TABULAR    FUT_I-90-1                   0.000000 0.000000
; I-90 Inadvertent Detention 5
1837             4524.000000 10.000000  0.000000   TABULAR    I-90-5                       0.000000 0.000000
; I-90 Inadvertent Detention 6
1842             4527.500000 6.500000   0.000000   TABULAR    I-90-6                       0.000000 0.000000
; Silverado Detention
1844             4539.000000 8.000000   0.000000   TABULAR    SILVERADO_DETENTION          0.000000 0.000000
; I-90 Inadvertent Detention 4
1845             4535.000000 15.000000  0.000000   TABULAR    FUT_I-90-4                   0.000000 0.000000
; Sage Valley Park R1
1998             4550.000000 8.000000   0.000000   TABULAR    FUT-SAGE_VALLEY_PARK_R1      0.000000 0.000000
; Cottonwood Park R3
2003             4556.500000 9.000000   0.000000   TABULAR    COTTONWOOD_PARK_R3           0.000000 0.000000
; Sage Bluffs Park R4
2005             4531.000000 9.000000   0.000000   TABULAR    SAGE_BLUFFS_PARK_R4          0.000000 0.000000
; Sunflower Park R5
2012             4530.000000 5.800000   0.000000   TABULAR    FUT_SUN_R5                   0.000000 0.000000
; Sunflower Park R6
2013             4526.000000 10.000000  0.000000   TABULAR    SUNFLOWER_PARK_R6            0.000000 0.000000
; Mitchell Pond
2014             4515.000000 5.000000   0.000000   TABULAR    MITCHELL_POND                0.000000 0.000000
; Private Pond
2097             4517.000000 4.000000   0.000000   TABULAR    PRIVATE_POND                 0.000000 0.000000
; Inadvertent Detention north of I-90
2355             4549.000000 4.000000   0.000000   TABULAR    I-90_NORTH                   0.000000 0.000000
; Future upper basin 4 storage
3000             4630.000000 5.000000   0.000000   TABULAR    UPPER_BASIN_4                0.000000 0.000000
; Future Upper Sage
3010             4620.000000 6.000000   0.000000   TABULAR    FUT_UPPER_SAGE               0.000000 0.000000
; Future I-90 2 & 3
3020             4596.500000 6.500000   0.000000   TABULAR    FUT_I-90-2AND3               0.000000 0.000000

[CONDUITS]
;;Name           From Node        To Node          Length     Roughness  InOffset   OutOffset  InitFlow   MaxFlow   
;;-------------- ---------------- ---------------- ---------- ---------- ---------- ---------- ---------- ----------
; Overflow path
1088-OVERFLOW    1088-2           LP-2380          139.635103 0.015000   3.320000   0.000000   0.000000   0.000000  
; 11
1379             1894             238              49.587091  0.010000   0.000195   0.000000   0.000000   0.000000  
; 1
1382             1893             1952             65.460000  0.010000   0.000000   0.000000   0.000000   0.000000  
; 2
1386             1810             1809             123.778000 0.010000   0.001000   0.000000   0.000000   0.000000  
; 3
1395             1808             1807             216.619000 0.010000   0.000000   0.000000   0.000000   0.000000  
; 4
1397             1806             1805             226.303000 0.010000   0.000000   0.000000   0.000000   0.000000  
; 5
1400             1898             1800             329.873000 0.010000   0.000000   0.000000   0.000000   0.000000  
; 6
1405             1896             1897             461.735000 0.010000   0.000000   0.000000   0.000000   0.000000  
; 7
1408             1804             1895             592.620000 0.010000   0.000000   0.000000   0.000000   0.000000  
; 8
1412             1923             1818             1124.072000 0.010000   0.000000   0.000000   0.000000   0.000000  
; 9
1413             1801             1414             1370.444000 0.010000   0.000000   0.000000   0.000000   0.000000  
; 10
1415             1414             1410             1536.082000 0.010000   0.000000   0.000000   0.000000   0.000000  
1562             1037             392              18.654407  0.013000   0.000000   0.030000   0.000000   0.000000  
1563             392              1039             18.711408  0.013000   0.000000   0.000000   0.000000   0.000000  
1567             1049             1050             25.874751  0.024000   0.000000   0.000000   0.000000   0.000000  
1568             1052             888              26.007745  0.013000   0.000000   0.000000   0.000000   0.000000  
1569             791              792              27.899797  0.013000   0.000000   0.000000   0.000000   0.000000  