[TITLE]
;;Project Title/Notes
Scenario Run :  BASE
 Oshkosh RR CIP Study

[OPTIONS]
;;Option             Value
FLOW_UNITS           CFS
INFILTRATION         HORTON
FLOW_ROUTING         DYNWAVE
LINK_OFFSETS         DEPTH
MIN_SLOPE            0
ALLOW_PONDING        NO
SKIP_STEADY_STATE    NO

START_DATE           12/31/1994
START_TIME           22:00:00
REPORT_START_DATE    12/31/1994
REPORT_START_TIME    22:00:00
END_DATE             01/01/1995
END_TIME             12:00:00
SWEEP_START          01/01
SWEEP_END            12/31
DRY_DAYS             0.000000
REPORT_STEP          00:01:00
WET_STEP             00:01:00
DRY_STEP             00:01:00
ROUTING_STEP         0:00:10 

INERTIAL_DAMPING     NONE
NORMAL_FLOW_LIMITED  FROUDE
FORCE_MAIN_EQUATION  H-W
VARIABLE_STEP        0.75
LENGTHENING_STEP     4
MIN_SURFAREA         0
MAX_TRIALS           4
HEAD_TOLERANCE       0.005000
SYS_FLOW_TOL         5
LAT_FLOW_TOL         5
MINIMUM_STEP         0.5
THREADS              1

[EVAPORATION]
;;Data Source    Parameters
;;-------------- ----------------
CONSTANT         0.000000
DRY_ONLY         YES

[RAINGAGES]
;;Name           Format    Interval SCF      Source    
;;-------------- --------- ------ ------ ----------
HUFF-1Q-12HR     CUMULATIVE 0.666667 1.000000 TIMESERIES RN_5            
HUFF-1Q-1HR      CUMULATIVE 0.050000 1.000000 TIMESERIES RN_1            
HUFF-1Q-2HR      CUMULATIVE 0.100000 1.000000 TIMESERIES RN_2            
HUFF-1Q-30MIN    CUMULATIVE 0.016667 1.000000 TIMESERIES RN_4            
HUFF-1Q-3HR      CUMULATIVE 0.166667 1.000000 TIMESERIES RN_3            
HUFF-1Q-3HR_100YR CUMULATIVE 0.166667 1.000000 TIMESERIES RN_14           
HUFF-1Q-6HR      CUMULATIVE 0.333333 1.000000 TIMESERIES RN_12           
HUFF-1Q-POINT    CUMULATIVE 0.016667 1.000000 TIMESERIES RN_0            
HUFF-1Q-PT-1HR-100YR CUMULATIVE 0.050000 1.000000 TIMESERIES RN_15           
HUFF-2Q-12HR     CUMULATIVE 0.666667 1.000000 TIMESERIES RN_11           
HUFF-2Q-POINT    CUMULATIVE 0.333333 1.000000 TIMESERIES RN_6            
HUFF-3Q-24HR     CUMULATIVE 1.333333 1.000000 TIMESERIES RN_13           
HUFF-3Q-POINT    CUMULATIVE 0.333333 1.000000 TIMESERIES RN_7            
HUFF-4Q-POINT    CUMULATIVE 0.333333 1.000000 TIMESERIES RN_8            

[SUBCATCHMENTS]
;;Name           Rain Gage        Outlet           Area     %Imperv  Width    %Slope   CurbLen  SnowPack        
;;-------------- ---------------- ---------------- -------- -------- -------- -------- -------- ----------------
03-102_1         HUFF-1Q-PT-1HR-100YR 03-102           1.437000 71.000000 781.200000 1.060000 0.000000                 
03-107_1         HUFF-1Q-PT-1HR-100YR 03-107           0.765000 72.300000 144.041000 0.850000 0.000000                 
03-119_1         HUFF-1Q-PT-1HR-100YR 03-119           4.206000 70.100000 334.078000 0.310000 0.000000                 
03-125_1         HUFF-1Q-PT-1HR-100YR 03-125           1.502000 51.800000 190.286000 1.000000 0.000000                 
03-128_1         HUFF-1Q-PT-1HR-100YR 03-128           3.165000 48.100000 275.300000 1.100000 0.000000                 
03-137_1         HUFF-1Q-PT-1HR-100YR 03-137           3.146000 54.800000 284.567000 9.650000 0.000000                 
03-139_1         HUFF-1Q-PT-1HR-100YR 03-139           0.957000 85.200000 175.789000 0.480000 0.000000                 
03-160_1         HUFF-1Q-PT-1HR-100YR 03-160           2.929000 47.300000 196.170000 0.430000 0.000000                 
03-164_1         HUFF-1Q-PT-1HR-100YR 03-164           2.346000 96.500000 452.844000 0.820000 0.000000                 
03-168_1         HUFF-1Q-PT-1HR-100YR 03-168           0.808000 68.700000 182.577000 1.020000 0.000000                 
03-170_1         HUFF-1Q-PT-1HR-100YR 03-170           1.907000 66.700000 259.533000 1.360000 0.000000                 
03-184_1         HUFF-1Q-PT-1HR-100YR 03-184           2.620000 40.200000 236.052000 0.400000 0.000000                 
03-185_1         HUFF-1Q-PT-1HR-100YR 03-185           1.290000 86.400000 283.841000 1.060000 0.000000                 
03-186_1         HUFF-1Q-PT-1HR-100YR 03-186           2.999000 49.300000 226.133000 0.290000 0.000000                 
03-188_1         HUFF-1Q-PT-1HR-100YR 03-188           3.676000 64.300000 623.482000 2.040000 0.000000                 
03-233_1         HUFF-1Q-PT-1HR-100YR 03-233           8.280000 78.600000 841.496000 0.450000 0.000000                 
03-234_1         HUFF-1Q-PT-1HR-100YR 03-234           6.294000 76.700000 525.944000 0.420000 0.000000                 
03-239_1         HUFF-1Q-PT-1HR-100YR 03-239           4.055000 52.600000 280.174000 0.920000 0.000000                 
03-242_1         HUFF-1Q-PT-1HR-100YR 03-242           0.906000 70.000000 193.179000 1.400000 0.000000                 
03-268_1         HUFF-1Q-PT-1HR-100YR 03-268           1.714000 72.000000 223.337000 0.860000 0.000000                 
03-270_1         HUFF-1Q-PT-1HR-100YR 03-270           3.916000 52.700000 536.320000 0.860000 0.000000                 
03-273_1         HUFF-1Q-PT-1HR-100YR 03-273           3.478000 79.900000 225.990000 0.220000 0.000000                 
03-273_2         HUFF-1Q-PT-1HR-100YR 03-273           0.941000 79.900000 127.347000 0.220000 0.000000                 
03-274_1         HUFF-1Q-PT-1HR-100YR 03-274           1.524000 72.000000 320.414000 1.220000 0.000000                 
03-280_1         HUFF-1Q-PT-1HR-100YR 03-280           3.664000 57.100000 547.848000 1.090000 0.000000                 
03-281_1         HUFF-1Q-PT-1HR-100YR 03-281           0.992000 62.600000 160.847000 1.060000 0.000000                 
03-283_1         HUFF-1Q-PT-1HR-100YR 03-283           2.938000 49.700000 344.677000 1.020000 0.000000                 
03-284_1         HUFF-1Q-PT-1HR-100YR 03-284           0.946000 62.700000 154.647000 0.710000 0.000000                 
03-287_1         HUFF-1Q-PT-1HR-100YR 03-287           3.812000 40.700000 305.552000 0.220000 0.000000                 
03-289_1         HUFF-1Q-PT-1HR-100YR 03-289           0.365000 73.400000 97.479000 0.510000 0.000000                 
03-290_1         HUFF-1Q-PT-1HR-100YR 03-290           1.808000 77.500000 373.491000 0.650000 0.000000                 
03-294_1         HUFF-1Q-PT-1HR-100YR 03-294           2.598000 65.200000 315.213000 1.990000 0.000000                 
03-295_1         HUFF-1Q-PT-1HR-100YR 03-295           1.292000 64.100000 257.453000 0.870000 0.000000                 
03-298_1         HUFF-1Q-PT-1HR-100YR 03-298           1.064000 68.500000 186.279000 0.780000 0.000000                 
03-306_1         HUFF-1Q-PT-1HR-100YR 03-306           0.286000 54.900000 83.632000 0.520000 0.000000                 
03-309_1         HUFF-1Q-PT-1HR-100YR 03-309           8.507000 32.400000 653.221000 0.860000 0.000000                 
03-334_1         HUFF-1Q-PT-1HR-100YR 03-334           1.943000 55.600000 178.364000 0.990000 0.000000                 
03-335_1         HUFF-1Q-PT-1HR-100YR 03-335           1.274000 63.300000 178.176000 0.640000 0.000000                 
03-382_1         HUFF-1Q-PT-1HR-100YR 03-382           0.387000 52.800000 112.885000 0.930000 0.000000                 
03-384_1         HUFF-1Q-PT-1HR-100YR 03-384           1.236000 65.900000 152.677000 1.010000 0.000000                 
03-386_1         HUFF-1Q-PT-1HR-100YR 03-386           0.165000 44.100000 101.713000 0.450000 0.000000                 
03-394_1         HUFF-1Q-PT-1HR-100YR 03-394           3.604000 62.900000 538.911000 0.300000 0.000000                 
03-408_1         HUFF-1Q-PT-1HR-100YR 03-408           1.613000 71.300000 238.102000 0.900000 0.000000                 
03-420_1         HUFF-1Q-PT-1HR-100YR 03-420           2.401000 42.800000 277.189000 0.560000 0.000000                 
03-60_1          HUFF-1Q-PT-1HR-100YR 03-60            3.221000 52.400000 324.610000 0.220000 0.000000                 
03-63_1          HUFF-1Q-PT-1HR-100YR 03-63            0.884000 94.000000 133.264000 0.460000 0.000000                 
03-67_1          HUFF-1Q-PT-1HR-100YR 03-67            0.730000 87.800000 119.817000 0.230000 0.000000                 
03-68_1          HUFF-1Q-PT-1HR-100YR 03-68            0.978000 95.600000 214.761000 0.670000 0.000000                 
03-71_1          HUFF-1Q-PT-1HR-100YR 03-71            1.318000 96.800000 289.603000 0.620000 0.000000                 
03-75_1          HUFF-1Q-PT-1HR-100YR 03-75            1.301000 85.400000 281.235000 3.090000 0.000000                 
03-77_1          HUFF-1Q-PT-1HR-100YR 03-77            1.197000 91.400000 198.425000 2.180000 0.000000                 
03-80_1          HUFF-1Q-PT-1HR-100YR 03-80            0.785000 33.900000 167.932000 0.280000 0.000000                 
09-232_1         HUFF-1Q-PT-1HR-100YR 09-232           5.800000 53.400000 663.550000 0.810000 0.000000                 
09-233_1         HUFF-1Q-PT-1HR-100YR 09-233           0.893000 64.200000 166.679000 1.310000 0.000000                 
09-234_1         HUFF-1Q-PT-1HR-100YR 09-234           1.881000 67.400000 305.556000 0.590000 0.000000                 
09-235_1         HUFF-1Q-PT-1HR-100YR 09-235           2.955000 51.000000 392.442000 0.530000 0.000000                 
09-237_1         HUFF-1Q-PT-1HR-100YR 09-237           2.117000 57.900000 315.002000 0.240000 0.000000                 
09-238_1         HUFF-1Q-PT-1HR-100YR 09-238           6.764000 60.300000 569.459000 0.530000 0.000000                 
09-240_1         HUFF-1Q-PT-1HR-100YR 09-240           1.822000 65.600000 253.162000 0.140000 0.000000                 
09-242_1         HUFF-1Q-PT-1HR-100YR 09-242           1.697000 69.200000 248.596000 0.690000 0.000000                 
09-245_1         HUFF-1Q-PT-1HR-100YR 09-245           0.873000 74.300000 133.397000 0.640000 0.000000                 
09-246_1         HUFF-1Q-PT-1HR-100YR 09-246           0.980000 81.800000 139.111000 1.000000 0.000000                 
09-247_1         HUFF-1Q-PT-1HR-100YR 09-247           4.211000 48.200000 373.091000 0.420000 0.000000                 
09-248_1         HUFF-1Q-PT-1HR-100YR 09-248           2.659000 49.500000 257.846000 0.540000 0.000000                 
09-249_1         HUFF-1Q-PT-1HR-100YR 09-249           4.540000 47.200000 462.511000 0.560000 0.000000                 
09-250_1         HUFF-1Q-PT-1HR-100YR 09-250           1.538000 58.600000 243.194000 0.470000 0.000000                 
09-253_1         HUFF-1Q-PT-1HR-100YR 09-253           0.700000 62.200000 142.163000 0.230000 0.000000                 
09-254_1         HUFF-1Q-PT-1HR-100YR 09-254           0.589000 68.400000 75.530000 0.400000 0.000000                 
09-255_1         HUFF-1Q-PT-1HR-100YR 09-255           0.701000 66.400000 102.496000 0.560000 0.000000                 
09-256_1         HUFF-1Q-PT-1HR-100YR 09-256           2.597000 47.500000 411.537000 0.860000 0.000000                 
09-257_1         HUFF-1Q-PT-1HR-100YR 09-257           1.214000 74.300000 203.765000 1.030000 0.000000                 
09-261_1         HUFF-1Q-PT-1HR-100YR 09-261           4.513000 46.500000 510.552000 1.140000 0.000000                 
09-262_1         HUFF-1Q-PT-1HR-100YR 09-262           0.824000 57.000000 134.471000 0.810000 0.000000                 
09-263_1         HUFF-1Q-PT-1HR-100YR 09-263           4.544000 47.900000 427.424000 0.550000 0.000000                 
09-264.1_1       HUFF-1Q-PT-1HR-100YR 09-264.1         3.327000 42.000000 245.289000 0.290000 0.000000                 
09-264_1         HUFF-1Q-PT-1HR-100YR 09-264           0.917000 59.500000 257.560000 1.340000 0.000000                 
09-265_1         HUFF-1Q-PT-1HR-100YR 09-265           1.346000 59.000000 233.669000 0.900000 0.000000                 
09-266_1         HUFF-1Q-PT-1HR-100YR 09-266           2.707000 55.400000 226.041000 0.670000 0.000000                 
09-267_1         HUFF-1Q-PT-1HR-100YR 09-267           0.959000 65.800000 185.533000 0.740000 0.000000                 
09-269_1         HUFF-1Q-PT-1HR-100YR 09-269           0.963000 63.200000 149.998000 0.640000 0.000000                 
09-270_1         HUFF-1Q-PT-1HR-100YR 09-270           7.026000 23.500000 429.501000 0.520000 0.000000                 
09-272_1         HUFF-1Q-PT-1HR-100YR 09-272           1.234000 61.000000 192.900000 0.100000 0.000000                 
09-272_2         HUFF-1Q-PT-1HR-100YR 09-272           1.261000 59.000000 211.284000 1.600000 0.000000                 
09-297_1         HUFF-1Q-PT-1HR-100YR 09-297           0.619000 88.500000 252.565000 2.710000 0.000000                 
09-344_1         HUFF-1Q-PT-1HR-100YR 09-344           2.748000 49.600000 231.900000 0.270000 0.000000                 
09-357_1         HUFF-1Q-PT-1HR-100YR 09-357           3.054000 39.100000 217.290000 0.310000 0.000000                 
09-443_1         HUFF-1Q-PT-1HR-100YR 09-443           0.528000 54.900000 125.281000 1.280000 0.000000                 
09-485_1         HUFF-1Q-PT-1HR-100YR 09-485           6.935000 29.300000 466.565000 0.710000 0.000000                 
09-489_1         HUFF-1Q-PT-1HR-100YR 09-489           1.095000 57.200000 189.966000 0.180000 0.000000                 
09-500_1         HUFF-1Q-PT-1HR-100YR 09-500           1.058000 54.000000 154.956000 0.600000 0.000000                 
13-3014_1        HUFF-1Q-PT-1HR-100YR 13-3014          2.253000 50.500000 598.676000 1.210000 0.000000                 
13-341_1         HUFF-1Q-PT-1HR-100YR 13-341           3.839000 53.800000 448.651000 2.340000 0.000000                 
13-346_1         HUFF-1Q-PT-1HR-100YR 13-346           3.263000 50.400000 527.157000 1.700000 0.000000                 
13-348_1         HUFF-1Q-PT-1HR-100YR 13-348           3.622000 45.100000 398.097000 0.550000 0.000000                 
13-362_1         HUFF-1Q-PT-1HR-100YR 13-362           3.782000 34.700000 291.226000 4.560000 0.000000                 
13-798_1         HUFF-1Q-PT-1HR-100YR 13-798           1.483000 40.200000 143.266000 0.580000 0.000000                 
13-804_1         HUFF-1Q-PT-1HR-100YR 13-804           1.698000 40.500000 249.970000 0.790000 0.000000                 
13-805_1         HUFF-1Q-PT-1HR-100YR 13-805           1.159000 63.100000 151.583000 0.960000 0.000000                 
P_MH1_1          HUFF-1Q-PT-1HR-100YR P_MH1            5.048000 76.500000 443.197000 0.580000 0.000000                 
P_MH2_1          HUFF-1Q-PT-1HR-100YR P_MH2            0.922000 100.000000 381.905000 1.620000 0.000000                 

[SUBAREAS]
;;Subcatchment   N-Imperv   N-Perv     S-Imperv   S-Perv     PctZero    RouteTo    PctRouted 
;;-------------- ---------- ---------- ---------- ---------- ---------- ---------- ----------
03-102_1         0.013000   0.300000   0.025000   0.100000   0.000000   OUTLET    
03-107_1         0.013000   0.300000   0.025000   0.100000   0.000000   OUTLET    
03-119_1         0.013000   0.300000   0.025000   0.100000   0.000000   OUTLET    
03-125_1         0.013000   0.300000   0.025000   0.100000   0.000000   OUTLET    
03-128_1         0.013000   0.300000   0.025000   0.100000   0.000000   OUTLET    
03-137_1         0.013000   0.300000   0.025000   0.100000   0.000000   OUTLET    
03-139_1         0.013000   0.300000   0.025000   0.100000   0.000000   OUTLET    
03-160_1         0.013000   0.300000   0.025000   0.100000   0.000000   OUTLET    
03-164_1         0.013000   0.300000   0.025000   0.100000   0.000000   OUTLET    
03-168_1         0.013000   0.300000   0.025000   0.100000   0.000000   OUTLET    
03-170_1         0.013000   0.300000   0.025000   0.100000   0.000000   OUTLET    
03-184_1         0.013000   0.300000   0.025000   0.100000   0.000000   OUTLET    
03-185_1         0.013000   0.300000   0.025000   0.100000   0.000000   OUTLET    
03-186_1         0.013000   0.300000   0.025000   0.100000   0.000000   OUTLET    
03-188_1         0.013000   0.300000   0.025000   0.100000   0.000000   OUTLET    
03-233_1         0.013000   0.300000   0.025000   0.100000   0.000000   OUTLET    
03-234_1         0.013000   0.300000   0.025000   0.100000   0.000000   OUTLET    
03-239_1         0.013000   0.300000   0.025000   0.100000   0.000000   OUTLET    
03-242_1         0.013000   0.300000   0.025000   0.100000   0.000000   OUTLET    
03-268_1         0.013000   0.300000   0.025000   0.100000   0.000000   OUTLET    
03-270_1         0.013000   0.300000   0.025000   0.100000   0.000000   OUTLET    
03-273_1         0.013000   0.300000   0.025000   0.100000   0.000000   OUTLET    
03-273_2         0.013000   0.300000   0.025000   0.100000   0.000000   OUTLET    
03-274_1         0.013000   0.300000   0.025000   0.100000   0.000000   OUTLET    
03-280_1         0.013000   0.300000   0.025000   0.100000   0.000000   OUTLET    
03-281_1         0.013000   0.300000   0.025000   0.100000   0.000000   OUTLET    
03-283_1         0.013000   0.300000   0.025000   0.100000   0.000000   OUTLET    
03-284_1         0.013000   0.300000   0.025000   0.100000   0.000000   OUTLET    
03-287_1         0.013000   0.300000   0.025000   0.100000   0.000000   OUTLET    
03-289_1         0.013000   0.300000   0.025000   0.100000   0.000000   OUTLET    
03-290_1         0.013000   0.300000   0.025000   0.100000   0.000000   OUTLET    
03-294_1         0.013000   0.300000   0.025000   0.100000   0.000000   OUTLET    
03-295_1         0.013000   0.300000   0.025000   0.100000   0.000000   OUTLET    
03-298_1         0.013000   0.300000   0.025000   0.100000   0.000000   OUTLET    
03-306_1         0.013000   0.300000   0.025000   0.100000   0.000000   OUTLET    
03-309_1         0.013000   0.300000   0.025000   0.100000   0.000000   OUTLET    
03-334_1         0.013000   0.300000   0.025000   0.100000   0.000000   OUTLET    
03-335_1         0.013000   0.300000   0.025000   0.100000   0.000000   OUTLET    
03-382_1         0.013000   0.300000   0.025000   0.100000   0.000000   OUTLET    
03-384_1         0.013000   0.300000   0.025000   0.100000   0.000000   OUTLET    
03-386_1         0.013000   0.300000   0.025000   0.100000   0.000000   OUTLET    
03-394_1         0.013000   0.300000   0.025000   0.100000   0.000000   OUTLET    
03-408_1         0.013000   0.300000   0.025000   0.100000   0.000000   OUTLET    
03-420_1         0.013000   0.300000   0.025000   0.100000   0.000000   OUTLET    
03-60_1          0.013000   0.300000   0.025000   0.100000   0.000000   OUTLET    
03-63_1          0.013000   0.300000   0.025000   0.100000   0.000000   OUTLET    
03-67_1          0.013000   0.300000   0.025000   0.100000   0.000000   OUTLET    
03-68_1          0.013000   0.300000   0.025000   0.100000   0.000000   OUTLET    
03-71_1          0.013000   0.300000   0.025000   0.100000   0.000000   OUTLET    
03-75_1          0.013000   0.300000   0.025000   0.100000   0.000000   OUTLET    
03-77_1          0.013000   0.300000   0.025000   0.100000   0.000000   OUTLET    
03-80_1          0.013000   0.300000   0.025000   0.100000   0.000000   OUTLET    
09-232_1         0.013000   0.300000   0.025000   0.100000   0.000000   OUTLET    
09-233_1         0.013000   0.300000   0.025000   0.100000   0.000000   OUTLET    
09-234_1         0.013000   0.300000   0.025000   0.100000   0.000000   OUTLET    
09-235_1         0.013000   0.300000   0.025000   0.100000   0.000000   OUTLET    
09-237_1         0.013000   0.300000   0.025000   0.100000   0.000000   OUTLET    
09-238_1         0.013000   0.300000   0.025000   0.100000   0.000000   OUTLET    
09-240_1         0.013000   0.300000   0.025000   0.100000   0.000000   OUTLET    
09-242_1         0.013000   0.300000   0.025000   0.100000   0.000000   OUTLET    
09-245_1         0.013000   0.300000   0.025000   0.100000   0.000000   OUTLET    
09-246_1         0.013000   0.300000   0.025000   0.100000   0.000000   OUTLET    
09-247_1         0.013000   0.300000   0.025000   0.100000   0.000000   OUTLET    
09-248_1         0.013000   0.300000   0.025000   0.100000   0.000000   OUTLET    
09-249_1         0.013000   0.300000   0.025000   0.100000   0.000000   OUTLET    
09-250_1         0.013000   0.300000   0.025000   0.100000   0.000000   OUTLET    
09-253_1         0.013000   0.300000   0.025000   0.100000   0.000000   OUTLET    
09-254_1         0.013000   0.300000   0.025000   0.100000   0.000000   OUTLET    
09-255_1         0.013000   0.300000   0.025000   0.100000   0.000000   OUTLET    
09-256_1         0.013000   0.300000   0.025000   0.100000   0.000000   OUTLET    
09-257_1         0.013000   0.300000   0.025000   0.100000   0.000000   OUTLET    
09-261_1         0.013000   0.300000   0.025000   0.100000   0.000000   OUTLET    
09-262_1         0.013000   0.300000   0.025000   0.100000   0.000000   OUTLET    
09-263_1         0.013000   0.300000   0.025000   0.100000   0.000000   OUTLET    
09-264.1_1       0.013000   0.300000   0.025000   0.100000   0.000000   OUTLET    
09-264_1         0.013000   0.300000   0.025000   0.100000   0.000000   OUTLET    
09-265_1         0.013000   0.300000   0.025000   0.100000   0.000000   OUTLET    
09-266_1         0.013000   0.300000   0.025000   0.100000   0.000000   OUTLET    
09-267_1         0.013000   0.300000   0.025000   0.100000   0.000000   OUTLET    
09-269_1         0.013000   0.300000   0.025000   0.100000   0.000000   OUTLET    
09-270_1         0.013000   0.300000   0.025000   0.100000   0.000000   OUTLET    
09-272_1         0.013000   0.300000   0.025000   0.100000   0.000000   OUTLET    
09-272_2         0.013000   0.300000   0.025000   0.100000   0.000000   OUTLET    
09-297_1         0.013000   0.300000   0.025000   0.100000   0.000000   OUTLET    
09-344_1         0.013000   0.300000   0.025000   0.100000   0.000000   OUTLET    
09-357_1         0.013000   0.300000   0.025000   0.100000   0.000000   OUTLET    
09-443_1         0.013000   0.300000   0.025000   0.100000   0.000000   OUTLET    
09-485_1         0.013000   0.300000   0.025000   0.100000   0.000000   OUTLET    
09-489_1         0.013000   0.300000   0.025000   0.100000   0.000000   OUTLET    
09-500_1         0.013000   0.300000   0.025000   0.100000   0.000000   OUTLET    
13-3014_1        0.013000   0.300000   0.025000   0.100000   0.000000   OUTLET    
13-341_1         0.013000   0.300000   0.025000   0.100000   0.000000   OUTLET    
13-346_1         0.013000   0.300000   0.025000   0.100000   0.000000   OUTLET    
13-348_1         0.013000   0.300000   0.025000   0.100000   0.000000   OUTLET    
13-362_1         0.013000   0.300000   0.025000   0.100000   0.000000   OUTLET    
13-798_1         0.013000   0.300000   0.025000   0.100000   0.000000   OUTLET    
13-804_1         0.013000   0.300000   0.025000   0.100000   0.000000   OUTLET    
13-805_1         0.013000   0.300000   0.025000   0.100000   0.000000   OUTLET    
P_MH1_1          0.013000   0.300000   0.025000   0.100000   0.000000   OUTLET    
P_MH2_1          0.013000   0.300000   0.025000   0.100000   0.000000   OUTLET    

[INFILTRATION]
;;Subcatchment   MaxRate    MinRate    Decay      DryTime    MaxInfil  
;;-------------- ---------- ---------- ---------- ---------- ----------
03-102_1         50.000000  10.000000  3.600000   0.000000   0.000000  
03-107_1         50.000000  10.000000  3.600000   0.000000   0.000000  
03-119_1         50.000000  10.000000  3.600000   0.000000   0.000000  
03-125_1         50.000000  10.000000  3.600000   0.000000   0.000000  
03-128_1         50.000000  10.000000  3.600000   0.000000   0.000000  
03-137_1         50.000000  10.000000  3.600000   0.000000   0.000000  
03-139_1         50.000000  10.000000  3.600000   0.000000   0.000000  
03-160_1         50.000000  10.000000  3.600000   0.000000   0.000000  
03-164_1         50.000000  10.000000  3.600000   0.000000   0.000000  
03-168_1         50.000000  10.000000  3.600000   0.000000   0.000000  
03-170_1         50.000000  10.000000  3.600000   0.000000   0.000000  
03-184_1         50.000000  10.000000  3.600000   0.000000   0.000000  
03-185_1         50.000000  10.000000  3.600000   0.000000   0.000000  
03-186_1         50.000000  10.000000  3.600000   0.000000   0.000000  
03-188_1         50.000000  10.000000  3.600000   0.000000   0.000000  
03-233_1         50.000000  10.000000  3.600000   0.000000   0.000000  
03-234_1         50.000000  10.000000  3.600000   0.000000   0.000000  
03-239_1         50.000000  10.000000  3.600000   0.000000   0.000000  
03-242_1         50.000000  10.000000  3.600000   0.000000   0.000000  
03-268_1         50.000000  10.000000  3.600000   0.000000   0.000000  
03-270_1         50.000000  10.000000  3.600000   0.000000   0.000000  
03-273_1         50.000000  10.000000  3.600000   0.000000   0.000000  
03-273_2         50.000000  10.000000  3.600000   0.000000   0.000000  
03-274_1         50.000000  10.000000  3.600000   0.000000   0.000000  
03-280_1         50.000000  10.000000  3.600000   0.000000   0.000000  
03-281_1         50.000000  10.000000  3.600000   0.000000   0.000000  
03-283_1         50.000000  10.000000  3.600000   0.000000   0.000000  
03-284_1         50.000000  10.000000  3.600000   0.000000   0.000000  
03-287_1         50.000000  10.000000  3.600000   0.000000   0.000000  
03-289_1         50.000000  10.000000  3.600000   0.000000   0.000000  
03-290_1         50.000000  10.000000  3.600000   0.000000   0.000000  
03-294_1         50.000000  10.000000  3.600000   0.000000   0.000000  
03-295_1         50.000000  10.000000  3.600000   0.000000   0.000000  
03-298_1         50.000000  10.000000  3.600000   0.000000   0.000000  
03-306_1         50.000000  10.000000  3.600000   0.000000   0.000000  
03-309_1         50.000000  10.000000  3.600000   0.000000   0.000000  
03-334_1         50.000000  10.000000  3.600000   0.000000   0.000000  
03-335_1         50.000000  10.000000  3.600000   0.000000   0.000000  
03-382_1         50.000000  10.000000  3.600000   0.000000   0.000000  
03-384_1         50.000000  10.000000  3.600000   0.000000   0.000000  
03-386_1         50.000000  10.000000  3.600000   0.000000   0.000000  
03-394_1         50.000000  10.000000  3.600000   0.000000   0.000000  
03-408_1         50.000000  10.000000  3.600000   0.000000   0.000000  
03-420_1         50.000000  10.000000  3.600000   0.000000   0.000000  
03-60_1          50.000000  10.000000  3.600000   0.000000   0.000000  
03-63_1          50.000000  10.000000  3.600000   0.000000   0.000000  
03-67_1          50.000000  10.000000  3.600000   0.000000   0.000000  
03-68_1          50.000000  10.000000  3.600000   0.000000   0.000000  
03-71_1          50.000000  10.000000  3.600000   0.000000   0.000000  
03-75_1          50.000000  10.000000  3.600000   0.000000   0.000000  
03-77_1          50.000000  10.000000  3.600000   0.000000   0.000000  
03-80_1          50.000000  10.000000  3.600000   0.000000   0.000000  
09-232_1         50.000000  10.000000  3.600000   0.000000   0.000000  
09-233_1         50.000000  10.000000  3.600000   0.000000   0.000000  
09-234_1         50.000000  10.000000  3.600000   0.000000   0.000000  
09-235_1         50.000000  10.000000  3.600000   0.000000   0.000000  
09-237_1         50.000000  10.000000  3.600000   0.000000   0.000000  
09-238_1         50.000000  10.000000  3.600000   0.000000   0.000000  
09-240_1         50.000000  10.000000  3.600000   0.000000   0.000000  
09-242_1         50.000000  10.000000  3.600000   0.000000   0.000000  
09-245_1         50.000000  10.000000  3.600000   0.000000   0.000000  
09-246_1         50.000000  10.000000  3.600000   0.000000   0.000000  
09-247_1         50.000000  10.000000  3.600000   0.000000   0.000000  
09-248_1         50.000000  10.000000  3.600000   0.000000   0.000000  
09-249_1         50.000000  10.000000  3.600000   0.000000   0.000000  
09-250_1         50.000000  10.000000  3.600000   0.000000   0.000000  
09-253_1         50.000000  10.000000  3.600000   0.000000   0.000000  
09-254_1         50.000000  10.000000  3.600000   0.000000   0.000000  
09-255_1         50.000000  10.000000  3.600000   0.000000   0.000000  
09-256_1         50.000000  10.000000  3.600000   0.000000   0.000000  
09-257_1         50.000000  10.000000  3.600000   0.000000   0.000000  
09-261_1         50.000000  10.000000  3.600000   0.000000   0.000000  
09-262_1         50.000000  10.000000  3.600000   0.000000   0.000000  
09-263_1         50.000000  10.000000  3.600000   0.000000   0.000000  
09-264.1_1       50.000000  10.000000  3.600000   0.000000   0.000000  
09-264_1         50.000000  10.000000  3.600000   0.000000   0.000000  
09-265_1         50.000000  10.000000  3.600000   0.000000   0.000000  
09-266_1         50.000000  10.000000  3.600000   0.000000   0.000000  
09-267_1         50.000000  10.000000  3.600000   0.000000   0.000000  
09-269_1         50.000000  10.000000  3.600000   0.000000   0.000000  
09-270_1         50.000000  10.000000  3.600000   0.000000   0.000000  
09-272_1         50.000000  10.000000  3.600000   0.000000   0.000000  
09-272_2         50.000000  10.000000  3.600000   0.000000   0.000000  
09-297_1         50.000000  10.000000  3.600000   0.000000   0.000000  
09-344_1         50.000000  10.000000  3.600000   0.000000   0.000000  
09-357_1         50.000000  10.000000  3.600000   0.000000   0.000000  
09-443_1         50.000000  10.000000  3.600000   0.000000   0.000000  
09-485_1         50.000000  10.000000  3.600000   0.000000   0.000000  
09-489_1         50.000000  10.000000  3.600000   0.000000   0.000000  
09-500_1         50.000000  10.000000  3.600000   0.000000   0.000000  
13-3014_1        50.000000  10.000000  3.600000   0.000000   0.000000  
13-341_1         50.000000  10.000000  3.600000   0.000000   0.000000  
13-346_1         50.000000  10.000000  3.600000   0.000000   0.000000  
13-348_1         50.000000  10.000000  3.600000   0.000000   0.000000  