[TITLE]
;;Project Title/Notes

[OPTIONS]
;;Option             Value
FLOW_UNITS           MGD
INFILTRATION         HORTON
FLOW_ROUTING         DYNWAVE
LINK_OFFSETS         DEPTH
MIN_SLOPE            0
ALLOW_PONDING        NO
SKIP_STEADY_STATE    NO

START_DATE           01/01/2011
START_TIME           00:00:00
REPORT_START_DATE    01/01/2011
REPORT_START_TIME    00:00:00
END_DATE             01/02/2011
END_TIME             00:00:00
SWEEP_START          01/01
SWEEP_END            12/31
DRY_DAYS             0.000000
REPORT_STEP          00:15:00
WET_STEP             00:15:00
DRY_STEP             01:00:00
ROUTING_STEP         0:00:30 

INERTIAL_DAMPING     PARTIAL
NORMAL_FLOW_LIMITED  SLOPE
FORCE_MAIN_EQUATION  H-W
VARIABLE_STEP        0.75
LENGTHENING_STEP     10
MIN_SURFAREA         12.556000
MAX_TRIALS           0
HEAD_TOLERANCE       0
SYS_FLOW_TOL         5
LAT_FLOW_TOL         5
MINIMUM_STEP         0.5
THREADS              1

[EVAPORATION]
;;Data Source    Parameters
;;-------------- ----------------
MONTHLY          0.027000 0.036000 0.060000 0.105000 0.142000 0.170000 0.164000 0.153000 0.118000 0.083000 0.046000 0.030000
DRY_ONLY         NO

[RAINGAGES]
;;Name           Format    Interval SCF      Source    
;;-------------- --------- ------ ------ ----------
DELHIMAINT       VOLUME    0.083333 1.000000 TIMESERIES RAINFALL_2011   
GM-MC-002        VOLUME    0.083333 1.000000 TIMESERIES GM-MC-002       
; Radar data for Sewershed GM-MC-003
GM-MC-003        VOLUME    0.083333 1.000000 TIMESERIES GM-MC-003       
; Rain-radar data for Sewershed GM-MC-004
GM-MC-004        VOLUME    0.083333 1.000000 TIMESERIES GM-MC-004       
; Rain radar data for GM-MC-005
GM-MC-005        VOLUME    0.083333 1.000000 TIMESERIES GM-MC-005       
GM-MC-006        VOLUME    0.083333 1.000000 TIMESERIES GM-MC-006       
GM-MC-007        VOLUME    0.083333 1.000000 TIMESERIES GM-MC-007       
GM-MC-008        VOLUME    0.083333 1.000000 TIMESERIES GM-MC-008       
GM-MC-009        VOLUME    0.083333 1.000000 TIMESERIES GM-MC-009       
GM-MC-010        VOLUME    0.083333 1.000000 TIMESERIES GM-MC-010       
GM-MC-011        VOLUME    0.083333 1.000000 TIMESERIES GM-MC-011       
GM-MC-012        VOLUME    0.083333 1.000000 TIMESERIES GM-MC-012       
GM-MC-013        VOLUME    0.083333 1.000000 TIMESERIES GM-MC-013       
GM-MC-014        VOLUME    0.083333 1.000000 TIMESERIES GM-MC-014       
GM-MC-015        VOLUME    0.083333 1.000000 TIMESERIES GM-MC-015       
GM-MC-016        VOLUME    0.083333 1.000000 TIMESERIES GM-MC-016       
GM-MC-017        VOLUME    0.083333 1.000000 TIMESERIES GM-MC-017       
GM-MC-018        VOLUME    0.083333 1.000000 TIMESERIES GM-MC-018       
GM-MC-019        VOLUME    0.083333 1.000000 TIMESERIES GM-MC-019       
GM-MC-020        VOLUME    0.083333 1.000000 TIMESERIES GM-MC-020       
GM-MC-021        VOLUME    0.083333 1.000000 TIMESERIES GM-MC-021       
GM-MC-022        VOLUME    0.083333 1.000000 TIMESERIES GM-MC-022       
GM-MC-023        VOLUME    0.083333 1.000000 TIMESERIES GM-MC-023       
GM-MC-024        VOLUME    0.083333 1.000000 TIMESERIES GM-MC-024       
GM-MC-025        VOLUME    1.000000 1.000000 TIMESERIES GM-MC-025       
GM-MR-001        VOLUME    0.083333 1.000000 TIMESERIES GM-MR-001       
GM-MR-002        VOLUME    0.083333 1.000000 TIMESERIES GM-MR-002       
GM-MR-003        VOLUME    0.083333 1.000000 TIMESERIES GM-MR-003       
GM-MR-004        VOLUME    0.083333 1.000000 TIMESERIES GM-MR-004       
GM-MR-005        VOLUME    0.083333 1.000000 TIMESERIES GM-MR-005       
GM-MR-006        VOLUME    0.083333 1.000000 TIMESERIES GM-MR-006       
GM-RR-001        VOLUME    0.083333 1.000000 TIMESERIES GM-RR-001       
GM-RR-002        VOLUME    0.083333 1.000000 TIMESERIES GM-RR-002       
GM-RR-003        VOLUME    0.083333 1.000000 TIMESERIES GM-RR-003       
GM-RR-004        VOLUME    0.083333 1.000000 TIMESERIES GM-RR-004       
GM-RR-005        VOLUME    0.083333 1.000000 TIMESERIES GM-RR-005       
GM-RR-006        VOLUME    0.083333 1.000000 TIMESERIES GM-RR-006       
GM-RR-007        VOLUME    0.083333 1.000000 TIMESERIES GM-RR-007       
GM-RR-008        VOLUME    0.083333 1.000000 TIMESERIES GM-RR-008       
GM-RR-009        VOLUME    0.083333 1.000000 TIMESERIES GM-RR-009       
GM-RR-010        VOLUME    0.083333 1.000000 TIMESERIES GM-RR-010       
GM-RR-011        VOLUME    0.083333 1.000000 TIMESERIES GM-RR-011       
GM-RR-04A        VOLUME    0.083333 1.000000 TIMESERIES GM-RR-04A       
MIDWAYSCHOOL     VOLUME    0.083333 1.000000 TIMESERIES RAINFALL_2011   
NEUMANGOLFCOURSE VOLUME    0.083333 1.000000 TIMESERIES RAINFALL_2011   
RG_2011          VOLUME    0.083333 1.000000 TIMESERIES RAINFALL_2011   

[SUBCATCHMENTS]
;;Name           Rain Gage        Outlet           Area     %Imperv  Width    %Slope   CurbLen  SnowPack        
;;-------------- ---------------- ---------------- -------- -------- -------- -------- -------- ----------------
0                DELHIMAINT       15201020         23.350000 5.300000 35.600000 14.800000 0.000000                 
1                DELHIMAINT       11513001         8.440000 2.000000 168.800000 2.000000 0.000000                 
10               DELHIMAINT       15201017         17.180000 4.000000 27.000000 15.200000 0.000000                 
2                DELHIMAINT       15316029         106.370000 8.600000 78.900000 9.000000 0.000000                 
3                NEUMANGOLFCOURSE 11014008         9.650000 6.200000 45.400000 32.400000 0.000000                 
4                NEUMANGOLFCOURSE 10902021         1.750000 10.500000 9.600000 37.700000 0.000000                 
5                DELHIMAINT       15208018         14.830000 13.600000 29.100000 19.100000 0.000000                 
6                DELHIMAINT       15209006         78.830000 8.500000 55.000000 8.460000 0.000000                 
7                DELHIMAINT       15201017         18.550000 19.800000 296.900000 4.600000 0.000000                 
8                DELHIMAINT       15316032         35.990000 9.100000 24.700000 8.300000 0.000000                 
9                DELHIMAINT       15201020         9.190000 28.300000 183.800000 6.500000 0.000000                 
GM0R3CC0011A     DELHIMAINT       24402010         57.106000 10.500000 814.340000 11.330000 0.000000                 
; GMMC2SC0001	GAGE1	10905002	0	;Skip this subcatchment: Area
; = 0
; GMMC2SC0002	GAGE1	10911011	0	;Skip this subcatchment: Area = 0
; GMMC2SC0003	GAGE1	10911001	0	;Skip this subcatchment: Area = 0
; GMMC2SC0005	GAGE1	10904003	0	;Skip this subcatchment: Area = 0
; GMMC2SC0006	GAGE1	11801001	0	;Skip this subcatchment: Area = 0
; GMMC2SC0007	GAGE1	10904001	0	;Skip this subcatchment: Area = 0
; GMMC2SC0008	GAGE1	10904002	0	;Skip this subcatchment: Area = 0
; GMMC2SC0009	GAGE1	11801007	0	;Skip this subcatchment: Area = 0
; GMMC2SC0010	GAGE1	11801006	0	;Skip this subcatchment: Area = 0
; GMMC2SC0011	GAGE1	11801005	0	;Skip this subcatchment: Area = 0
; GMMC2SC0012	GAGE1	11801004	0	;Skip this subcatchment: Area = 0
; GMMC2SC0013	GAGE1	11801003	0	;Skip this subcatchment: Area = 0
; GMMC2SC0014	GAGE1	11801002	0	;Skip this subcatchment: Area = 0
; GMMC2SC0015	GAGE1	11801008	0	;Skip this subcatchment: Area = 0
; GMMC2SC0016	GAGE1	10904004	0	;Skip this subcatchment: Area = 0
; GMMC2SC0017	GAGE1	10904005	0	;Skip this subcatchment: Area = 0
; GMMC2SC0018	GAGE1	10904006	0	;Skip this subcatchment: Area = 0
; GMMC2SC0019	GAGE1	11013005	0	;Skip this subcatchment: Area = 0
; GMMC2SC0020	GAGE1	11013001	0	;Skip this subcatchment: Area = 0
; GMMC2SC0021	GAGE1	11013010	0	;Skip this subcatchment: Area = 0
; GMMC2SC0022	GAGE1	11803004	0	;Skip this subcatchment: Area = 0
; GMMC2SC0023	GAGE1	11714002	0	;Skip this subcatchment: Area = 0
; GMMC2SC0004	GAGE1	10905006	0	;Skip this subcatchment: Area = 0
; GMMC4SC0003	GAGE1	11713005	0	;Skip this subcatchment: Area = 0
; GMMC4SC0004	GAGE1	11713007	0	;Skip this subcatchment: Area = 0
; GMMC4SC0002	GAGE1	11713014	0	;Skip this subcatchment: Area = 0
; GMMC4SC0001	GAGE1	15016002	0	;Skip this subcatchment: Area = 0
; GMMC8SC0001	GAGE1	16116008	0	;Skip this subcatchment: Area = 0
; GMMC8SC0002	GAGE1	16116004	0	;Skip this subcatchment: Area = 0
; GMMC8SC0003	GAGE1	16116005	0	;Skip this subcatchment: Area = 0
; GMMC8SC0004	GAGE1	16110001	0	;Skip this subcatchment: Area = 0
; GMMC8SC0005	GAGE1	16110002	0	;Skip this subcatchment: Area = 0
; GMMC8SC0006	GAGE1	16110003	0	;Skip this subcatchment: Area = 0
; GMMC8SC0007	GAGE1	16110004	0	;Skip this subcatchment: Area = 0
; GMMC8SC0008	GAGE1	16110005	0	;Skip this subcatchment: Area = 0
; GMMC8SC0009	GAGE1	16110007	0	;Skip this subcatchment: Area = 0
; GMMC8SC0010	GAGE1	16111003	0	;Skip this subcatchment: Area = 0
; GMMC8SC0011	GAGE1	16110006	0	;Skip this subcatchment: Area = 0
; GMMC8SC0012	GAGE1	16111002	0	;Skip this subcatchment: Area = 0
; GMMC8SC0013	GAGE1	16106014	0	;Skip this subcatchment: Area = 0
; GMMC8SC0014	GAGE1	16114003	0	;Skip this subcatchment: Area = 0
; GMMC8SC0015	GAGE1	16114002	0	;Skip this subcatchment: Area = 0
; GMMC8SC0016	GAGE1	16111010	0	;Skip this subcatchment: Area = 0
; GMMC8SC0017	GAGE1	16111011	0	;Skip this subcatchment: Area = 0
; GMMC8SC0018	GAGE1	16111012	0	;Skip this subcatchment: Area = 0
; GMMC8SC0019	GAGE1	16111013	0	;Skip this subcatchment: Area = 0
; GMMC8SC0020	GAGE1	16106017	0	;Skip this subcatchment: Area = 0
; GMMC8SC0021	GAGE1	16106015	0	;Skip this subcatchment: Area = 0
; GMMC8SC0022	GAGE1	16106016	0	;Skip this subcatchment: Area = 0
; GMMC8SC0023	GAGE1	16106028	0	;Skip this subcatchment: Area = 0
; GMMC8SC0024	GAGE1	16106013	0	;Skip this subcatchment: Area = 0
; GMMC8SC0025	GAGE1	16111009	0	;Skip this subcatchment: Area = 0
; GMMC9SC0001	GAGE1	19208011	0	;Skip this subcatchment: Area = 0
; GMMC9SC0002	GAGE1	19207020	0	;Skip this subcatchment: Area = 0
; GMMC9SC0003	GAGE1	19206002	0	;Skip this subcatchment: Area = 0
; GMMC9SC0004	GAGE1	19206001	0	;Skip this subcatchment: Area = 0
; GMMC9SC0005	GAGE1	19203013	0	;Skip this subcatchment: Area = 0
; GMMC9SC0006	GAGE1	19207025	0	;Skip this subcatchment: Area = 0
; GMMC9SC0007	GAGE1	19207024	0	;Skip this subcatchment: Area = 0
; GMMC9SC0008	GAGE1	19207023	0	;Skip this subcatchment: Area = 0
; GMMC9SC0009	GAGE1	19203012	0	;Skip this subcatchment: Area = 0
; GMMC9SC0010	GAGE1	19202025	0	;Skip this subcatchment: Area = 0
; GMMC9SC0011	GAGE1	19202024	0	;Skip this subcatchment: Area = 0
; GMMC9SC0012	GAGE1	19202011	0	;Skip this subcatchment: Area = 0
; GMMC9SC0013	GAGE1	19202008	0	;Skip this subcatchment: Area = 0
; GMMC9SC0014	GAGE1	19202006	0	;Skip this subcatchment: Area = 0
; GMMC9SC0015	GAGE1	19207010	0	;Skip this subcatchment: Area = 0
; GMMC9SC0016	GAGE1	19207016	0	;Skip this subcatchment: Area = 0
; GMMC9SC0017	GAGE1	19202019	0	;Skip this subcatchment: Area = 0
; GMMC9SC0018	GAGE1	16105006	0	;Skip this subcatchment: Area = 0
; GMMC9SC0019	GAGE1	16105005	0	;Skip this subcatchment: Area = 0
; GMMC9SC0020	GAGE1	16105004	0	;Skip this subcatchment: Area = 0
; GMMC9SC0021	GAGE1	16013010	0	;Skip this subcatchment: Area = 0
; GMMC9SC0022	GAGE1	16104006	0	;Skip this subcatchment: Area = 0
; GMMC9SC0023	GAGE1	16104007	0	;Skip this subcatchment: Area = 0
; GMMC9SC0024	GAGE1	16104010	0	;Skip this subcatchment: Area = 0
; GMMC9SC0025	GAGE1	19201001	0	;Skip this subcatchment: Area = 0
; GMMC9SC0026	GAGE1	19201002	0	;Skip this subcatchment: Area = 0
; GMMC9SC0027	GAGE1	19201006	0	;Skip this subcatchment: Area = 0
; GMMC9SC0028	GAGE1	19201007	0	;Skip this subcatchment: Area = 0
; GMMC9SC0029	GAGE1	19202013	0	;Skip this subcatchment: Area = 0
; GMMC9SC0030	GAGE1	19201008	0	;Skip this subcatchment: Area = 0
; GMMC9SC0031	GAGE1	19201009	0	;Skip this subcatchment: Area = 0
; GMMC9SC0032	GAGE1	19201003	0	;Skip this subcatchment: Area = 0
; GMMC9SC0033	GAGE1	19201004	0	;Skip this subcatchment: Area = 0
; GMMC9SC0034	GAGE1	19201005	0	;Skip this subcatchment: Area = 0
; GMMC9SC0035	GAGE1	19316005	0	;Skip this subcatchment: Area = 0
; GMMC9SC0036	GAGE1	19316001	0	;Skip this subcatchment: Area = 0
; GMMC9SC0037	GAGE1	19316002	0	;Skip this subcatchment: Area = 0
; GMMC9SC0038	GAGE1	19316006	0	;Skip this subcatchment: Area = 0
; GMMC9SC0039	GAGE1	19316007	0	;Skip this subcatchment: Area = 0
; GMMC9SC0040	GAGE1	19316008	0	;Skip this subcatchment: Area = 0
; GMMC9SC0041	GAGE1	19316004	0	;Skip this subcatchment: Area = 0
; GMMC9SC0042	GAGE1	19201017	0	;Skip this subcatchment: Area = 0
; GMMC9SC0043	GAGE1	19201011	0	;Skip this subcatchment: Area = 0
; GMMC9SC0044	GAGE1	19201010	0	;Skip this subcatchment: Area = 0
; GMMC9SC0045	GAGE1	19202001	0	;Skip this subcatchment: Area = 0
; GMMC9SC0046	GAGE1	19315003	0	;Skip this subcatchment: Area = 0
; GMMC9SC0047	GAGE1	19315004	0	;Skip this subcatchment: Area = 0
; GMMC9SC0048	GAGE1	19310001	0	;Skip this subcatchment: Area = 0
; GMMC9SC0049	GAGE1	19310003	0	;Skip this subcatchment: Area = 0
; GMMC9SC0050	GAGE1	19309023	0	;Skip this subcatchment: Area = 0
; GMMC9SC0051	GAGE1	16104012	0	;Skip this subcatchment: Area = 0
; GMMC9SC0052	GAGE1	16104011	0	;Skip this subcatchment: Area = 0
; GMMC9SC0054	GAGE1	16104005	0	;Skip this subcatchment: Area = 0
; GMMC9SC0056	GAGE1	16104002	0	;Skip this subcatchment: Area = 0
; GMMC9SC0057	GAGE1	16104004	0	;Skip this subcatchment: Area = 0
; GMMC9SC0058	GAGE1	16104003	0	;Skip this subcatchment: Area = 0
; GMMC9SC0059	GAGE1	16104001	0	;Skip this subcatchment: Area = 0
; GMMC9SC0060	GAGE1	19202029	0	;Skip this subcatchment: Area = 0
; GMMC9SC0061	GAGE1	19216001	0	;Skip this subcatchment: Area = 0
; GMMC9SC0062	GAGE1	19209005	0	;Skip this subcatchment: Area = 0
; GMMC9SC0063	GAGE1	19209006	0	;Skip this subcatchment: Area = 0
; GMMC9SC0064	GAGE1	19209008	0	;Skip this subcatchment: Area = 0
; GMMC10SC0001	GAGE1	19111001	0	;Skip this subcatchment: Area = 0
; GMMC10SC0002	GAGE1	19110015	0	;Skip this subcatchment: Area = 0
; GMMC10SC0003	GAGE1	19110014	0	;Skip this subcatchment: Area = 0
; GMMC10SC0005	GAGE1	19109014	0	;Skip this subcatchment: Area = 0
; GMMC10SC0006	GAGE1	19109015	0	;Skip this subcatchment: Area = 0
; GMMC10SC0007	GAGE1	19110009	0	;Skip this subcatchment: Area = 0
; GMMC10SC0008	GAGE1	19110010	0	;Skip this subcatchment: Area = 0
; GMMC10SC0009	GAGE1	19110011	0	;Skip this subcatchment: Area = 0
; GMMC10SC0010	GAGE1	19110012	0	;Skip this subcatchment: Area = 0
; GMMC10SC0011	GAGE1	19110005	0	;Skip this subcatchment: Area = 0
; GMMC10SC0012	GAGE1	19110004	0	;Skip this subcatchment: Area = 0
; GMMC10SC0013	GAGE1	19110003	0	;Skip this subcatchment: Area = 0
; GMMC10SC0014	GAGE1	19110002	0	;Skip this subcatchment: Area = 0
; GMMC10SC0015	GAGE1	19110001	0	;Skip this subcatchment: Area = 0
; GMMC10SC0016	GAGE1	19108017	0	;Skip this subcatchment: Area = 0
; GMMC10SC0017	GAGE1	19107003	0	;Skip this subcatchment: Area = 0
; GMMC10SC0018	GAGE1	19107002	0	;Skip this subcatchment: Area = 0
; GMMC10SC0020	GAGE1	19107004	0	;Skip this subcatchment: Area = 0
; GMMC10SC0021	GAGE1	19107008	0	;Skip this subcatchment: Area = 0
; GMMC10SC0022	GAGE1	19107007	0	;Skip this subcatchment: Area = 0
; GMMC10SC0023	GAGE1	19107006	0	;Skip this subcatchment: Area = 0
; GMMC10SC0024	GAGE1	19110008	0	;Skip this subcatchment: Area = 0
; GMMC10SC0025	GAGE1	19110007	0	;Skip this subcatchment: Area = 0
; GMMC10SC0026	GAGE1	19110006	0	;Skip this subcatchment: Area = 0
; GMMC10SC0027	GAGE1	19107017	0	;Skip this subcatchment: Area = 0
; GMMC10SC0028	GAGE1	19107021	0	;Skip this subcatchment: Area = 0
; GMMC10SC0029	GAGE1	19107016	0	;Skip this subcatchment: Area = 0
; GMMC10SC0030	GAGE1	19107013	0	;Skip this subcatchment: Area = 0
; GMMC10SC0031	GAGE1	19107014	0	;Skip this subcatchment: Area = 0
; GMMC10SC0032	GAGE1	19107015	0	;Skip this subcatchment: Area = 0
; GMMC10SC0033	GAGE1	19107018	0	;Skip this subcatchment: Area = 0
; GMMC10SC0034	GAGE1	19107019	0	;Skip this subcatchment: Area = 0
; GMMC10SC0035	GAGE1	19106001	0	;Skip this subcatchment: Area = 0
; GMMC10SC0036	GAGE1	19107020	0	;Skip this subcatchment: Area = 0
; GMMC10SC0037	GAGE1	19108016	0	;Skip this subcatchment: Area = 0
; GMMC10SC0038	GAGE1	19108015	0	;Skip this subcatchment: Area = 0
; GMMC10SC0039	GAGE1	19108014	0	;Skip this subcatchment: Area = 0
; GMMC10SC0040	GAGE1	19101024	0	;Skip this subcatchment: Area = 0
; GMMC10SC0041	GAGE1	19101023	0	;Skip this subcatchment: Area = 0
; GMMC10SC0042	GAGE1	19101017	0	;Skip this subcatchment: Area = 0
; GMMC10SC0043	GAGE1	19101018	0	;Skip this subcatchment: Area = 0
; GMMC10SC0044	GAGE1	19107001	0	;Skip this subcatchment: Area = 0
; GMMC10SC0045	GAGE1	19102005	0	;Skip this subcatchment: Area = 0
; GMMC10SC0046	GAGE1	19102004	0	;Skip this subcatchment: Area = 0
; GMMC10SC0047	GAGE1	19102003	0	;Skip this subcatchment: Area = 0
; GMMC10SC0048	GAGE1	19107005	0	;Skip this subcatchment: Area = 0
; GMMC10SC0049	GAGE1	19102011	0	;Skip this subcatchment: Area = 0
; GMMC10SC0050	GAGE1	19102010	0	;Skip this subcatchment: Area = 0
; GMMC10SC0051	GAGE1	19102006	0	;Skip this subcatchment: Area = 0
; GMMC10SC0052	GAGE1	19102009	0	;Skip this subcatchment: Area = 0
; GMMC10SC0053	GAGE1	19215019	0	;Skip this subcatchment: Area = 0
; GMMC10SC0054	GAGE1	19102007	0	;Skip this subcatchment: Area = 0
; GMMC10SC0056	GAGE1	19102008	0	;Skip this subcatchment: Area = 0
; GMMC10SC0057	GAGE1	19107012	0	;Skip this subcatchment: Area = 0
; GMMC10SC0058	GAGE1	19102018	0	;Skip this subcatchment: Area = 0
; GMMC10SC0059	GAGE1	19102017	0	;Skip this subcatchment: Area = 0
; GMMC10SC0060	GAGE1	19102015	0	;Skip this subcatchment: Area = 0
; GMMC10SC0061	GAGE1	19102016	0	;Skip this subcatchment: Area = 0
; GMMC10SC0062	GAGE1	19102012	0	;Skip this subcatchment: Area = 0
; GMMC10SC0063	GAGE1	19102029	0	;Skip this subcatchment: Area = 0
; GMMC10SC0064	GAGE1	19102013	0	;Skip this subcatchment: Area = 0
; GMMC10SC0065	GAGE1	19102014	0	;Skip this subcatchment: Area = 0
; GMMC10SC0066	GAGE1	19215023	0	;Skip this subcatchment: Area = 0
; GMMC10SC0067	GAGE1	19215018	0	;Skip this subcatchment: Area = 0
; GMMC10SC0068	GAGE1	19215035	0	;Skip this subcatchment: Area = 0
; GMMC10SC0069	GAGE1	19215017	0	;Skip this subcatchment: Area = 0
; GMMC10SC0070	GAGE1	19216028	0	;Skip this subcatchment: Area = 0
; GMMC10SC0071	GAGE1	19215011	0	;Skip this subcatchment: Area = 0
; GMMC10SC0072	GAGE1	19215010	0	;Skip this subcatchment: Area = 0
; GMMC10SC0073	GAGE1	19216027	0	;Skip this subcatchment: Area = 0
; GMMC10SC0074	GAGE1	19215009	0	;Skip this subcatchment: Area = 0
; GMMC10SC0075	GAGE1	19215004	0	;Skip this subcatchment: Area = 0
; GMMC10SC0076	GAGE1	19215034	0	;Skip this subcatchment: Area = 0
; GMMC10SC0077	GAGE1	19215016	0	;Skip this subcatchment: Area = 0
; GMMC10SC0078	GAGE1	19215020	0	;Skip this subcatchment: Area = 0
; GMMC10SC0079	GAGE1	19215021	0	;Skip this subcatchment: Area = 0
; GMMC10SC0080	GAGE1	19215022	0	;Skip this subcatchment: Area = 0
; GMMC10SC0081	GAGE1	19215005	0	;Skip this subcatchment: Area = 0
; GMMC10SC0082	GAGE1	19106011	0	;Skip this subcatchment: Area = 0
; GMMC10SC0083	GAGE1	19106014	0	;Skip this subcatchment: Area = 0
; GMMC10SC0084	GAGE1	19106010	0	;Skip this subcatchment: Area = 0
; GMMC10SC0085	GAGE1	19106008	0	;Skip this subcatchment: Area = 0
; GMMC10SC0086	GAGE1	19106009	0	;Skip this subcatchment: Area = 0
; GMMC10SC0088	GAGE1	19106007	0	;Skip this subcatchment: Area = 0
; GMMC10SC0089	GAGE1	19103019	0	;Skip this subcatchment: Area = 0
; GMMC10SC0090	GAGE1	19103017	0	;Skip this subcatchment: Area = 0
; GMMC10SC0091	GAGE1	19103018	0	;Skip this subcatchment: Area = 0
; GMMC10SC0092	GAGE1	19106006	0	;Skip this subcatchment: Area = 0
; GMMC10SC0093	GAGE1	19106005	0	;Skip this subcatchment: Area = 0
; GMMC10SC0094	GAGE1	19103016	0	;Skip this subcatchment: Area = 0
; GMMC10SC0095	GAGE1	19103015	0	;Skip this subcatchment: Area = 0
; GMMC10SC0096	GAGE1	19106004	0	;Skip this subcatchment: Area = 0
; GMMC10SC0097	GAGE1	19106003	0	;Skip this subcatchment: Area = 0
; GMMC10SC0098	GAGE1	19106002	0	;Skip this subcatchment: Area = 0
; GMMC10SC0099	GAGE1	19103014	0	;Skip this subcatchment: Area = 0
; GMMC10SC0100	GAGE1	19103012	0	;Skip this subcatchment: Area = 0
; GMMC10SC0101	GAGE1	19103011	0	;Skip this subcatchment: Area = 0
; GMMC10SC0102	GAGE1	19103010	0	;Skip this subcatchment: Area = 0
; GMMC10SC0103	GAGE1	19103009	0	;Skip this subcatchment: Area = 0
; GMMC10SC0104	GAGE1	19103008	0	;Skip this subcatchment: Area = 0
; GMMC10SC0105	GAGE1	19102027	0	;Skip this subcatchment: Area = 0
; GMMC10SC0106	GAGE1	19102023	0	;Skip this subcatchment: Area = 0
; GMMC10SC0107	GAGE1	19102023	0	;Skip this subcatchment: Area = 0
; GMMC10SC0108	GAGE1	19103022	0	;Skip this subcatchment: Area = 0
; GMMC10SC0109	GAGE1	19103005	0	;Skip this subcatchment: Area = 0
; GMMC10SC0110	GAGE1	19103006	0	;Skip this subcatchment: Area = 0
; GMMC10SC0111	GAGE1	19103004	0	;Skip this subcatchment: Area = 0
; GMMC10SC0112	GAGE1	19103003	0	;Skip this subcatchment: Area = 0
; GMMC10SC0113	GAGE1	19103002	0	;Skip this subcatchment: Area = 0
; GMMC10SC0114	GAGE1	19102020	0	;Skip this subcatchment: Area = 0
; GMMC10SC0115	GAGE1	19103001	0	;Skip this subcatchment: Area = 0
; GMMC10SC0116	GAGE1	19102021	0	;Skip this subcatchment: Area = 0
; GMMC10SC0117	GAGE1	19214015	0	;Skip this subcatchment: Area = 0
; GMMC10SC0118	GAGE1	19214014	0	;Skip this subcatchment: Area = 0
; GMMC10SC0119	GAGE1	19214013	0	;Skip this subcatchment: Area = 0
; GMMC10SC0120	GAGE1	19215031	0	;Skip this subcatchment: Area = 0
; GMMC10SC0121	GAGE1	19215032	0	;Skip this subcatchment: Area = 0
; GMMC10SC0122	GAGE1	19214004	0	;Skip this subcatchment: Area = 0
; GMMC10SC0123	GAGE1	19214002	0	;Skip this subcatchment: Area = 0
; GMMC10SC0124	GAGE1	19214003	0	;Skip this subcatchment: Area = 0
; GMMC10SC0126	GAGE1	19214005	0	;Skip this subcatchment: Area = 0
; GMMC10SC0127	GAGE1	19214001	0	;Skip this subcatchment: Area = 0
; GMMC10SC0128	GAGE1	19215025	0	;Skip this subcatchment: Area = 0
; GMMC10SC0129	GAGE1	19213007	0	;Skip this subcatchment: Area = 0
; GMMC10SC0130	GAGE1	19213006	0	;Skip this subcatchment: Area = 0
; GMMC10SC0131	GAGE1	19214020	0	;Skip this subcatchment: Area = 0
; GMMC10SC0132	GAGE1	19214018	0	;Skip this subcatchment: Area = 0
; GMMC10SC0133	GAGE1	19214019	0	;Skip this subcatchment: Area = 0
; GMMC10SC0134	GAGE1	19214017	0	;Skip this subcatchment: Area = 0
; GMMC10SC0135	GAGE1	19214011	0	;Skip this subcatchment: Area = 0
; GMMC10SC0136	GAGE1	19214010	0	;Skip this subcatchment: Area = 0
; GMMC10SC0137	GAGE1	19214016	0	;Skip this subcatchment: Area = 0
; GMMC10SC0139	GAGE1	19214009	0	;Skip this subcatchment: Area = 0
; GMMC10SC0140	GAGE1	19214008	0	;Skip this subcatchment: Area = 0
; GMMC10SC0141	GAGE1	19214007	0	;Skip this subcatchment: Area = 0
; GMMC10SC0142	GAGE1	19214006	0	;Skip this subcatchment: Area = 0
; GMMC10SC0143	GAGE1	19214027	0	;Skip this subcatchment: Area = 0
; GMMC10SC0144	GAGE1	19215027	0	;Skip this subcatchment: Area = 0
; GMMC10SC0145	GAGE1	19215024	0	;Skip this subcatchment: Area = 0
; GMMC10SC0146	GAGE1	19215006	0	;Skip this subcatchment: Area = 0
; GMMC10SC0147	GAGE1	19211019	0	;Skip this subcatchment: Area = 0
; GMMC10SC0148	GAGE1	19211018	0	;Skip this subcatchment: Area = 0
; GMMC10SC0149	GAGE1	19211011	0	;Skip this subcatchment: Area = 0
; GMMC10SC0150	GAGE1	19211009	0	;Skip this subcatchment: Area = 0
; GMMC10SC0151	GAGE1	19211010	0	;Skip this subcatchment: Area = 0
; GMMC10SC0152	GAGE1	19211012	0	;Skip this subcatchment: Area = 0
; GMMC10SC0153	GAGE1	19211014	0	;Skip this subcatchment: Area = 0
; GMMC10SC0154	GAGE1	19211017	0	;Skip this subcatchment: Area = 0
; GMMC10SC0155	GAGE1	19211015	0	;Skip this subcatchment: Area = 0
; GMMC10SC0156	GAGE1	19210019	0	;Skip this subcatchment: Area = 0
; GMMC10SC0157	GAGE1	19211006	0	;Skip this subcatchment: Area = 0
; GMMC10SC0158	GAGE1	19211005	0	;Skip this subcatchment: Area = 0
; GMMC10SC0159	GAGE1	19211004	0	;Skip this subcatchment: Area = 0
; GMMC10SC0160	GAGE1	19210021	0	;Skip this subcatchment: Area = 0
; GMMC10SC0161	GAGE1	19210022	0	;Skip this subcatchment: Area = 0
; GMMC10SC0162	GAGE1	19211002	0	;Skip this subcatchment: Area = 0
; GMMC10SC0163	GAGE1	19211001	0	;Skip this subcatchment: Area = 0
; GMMC10SC0164	GAGE1	19210015	0	;Skip this subcatchment: Area = 0
; GMMC10SC0165	GAGE1	19206012	0	;Skip this subcatchment: Area = 0
; GMMC10SC0166	GAGE1	19207027	0	;Skip this subcatchment: Area = 0
; GMMC10SC0167	GAGE1	19206011	0	;Skip this subcatchment: Area = 0
; GMMC10SC0168	GAGE1	19207028	0	;Skip this subcatchment: Area = 0
; GMMC10SC0169	GAGE1	19210014	0	;Skip this subcatchment: Area = 0
; GMMC10SC0170	GAGE1	19210016	0	;Skip this subcatchment: Area = 0
; GMMC10SC0171	GAGE1	19210018	0	;Skip this subcatchment: Area = 0
; GMMC10SC0172	GAGE1	19210004	0	;Skip this subcatchment: Area = 0
; GMMC10SC0173	GAGE1	19110013	0	;Skip this subcatchment: Area = 0
; GMMC11SC0004	GAGE1	19216018	0	;Skip this subcatchment: Area = 0
; GMMC11SC0005	GAGE1	19216012	0	;Skip this subcatchment: Area = 0
; GMMC11SC0006	GAGE1	19216013	0	;Skip this subcatchment: Area = 0
; GMMC11SC0007	GAGE1	19216012	0	;Skip this subcatchment: Area = 0
; GMMC11SC0008	GAGE1	19216009	0	;Skip this subcatchment: Area = 0
; GMMC11SC0010	GAGE1	19216010	0	;Skip this subcatchment: Area = 0
; GMMC12SC0001	GAGE1	16206001	0	;Skip this subcatchment: Area = 0
; GMMC12SC0002	GAGE1	16206002	0	;Skip this subcatchment: Area = 0
; GMMC12SC0003	GAGE1	16203012	0	;Skip this subcatchment: Area = 0
; GMMC12SC0004	GAGE1	16203006	0	;Skip this subcatchment: Area = 0
; GMMC12SC0005	GAGE1	16203011	0	;Skip this subcatchment: Area = 0
; GMMC12SC0006	GAGE1	16203010	0	;Skip this subcatchment: Area = 0
; GMMC12SC0007	GAGE1	16203007	0	;Skip this subcatchment: Area = 0
; GMMC12SC0008	GAGE1	16203008	0	;Skip this subcatchment: Area = 0
; GMMC12SC0011	GAGE1	16204001	0	;Skip this subcatchment: Area = 0
; GMMC12SC0013	GAGE1	16204002	0	;Skip this subcatchment: Area = 0
; GMMC12SC0014	GAGE1	16204005	0	;Skip this subcatchment: Area = 0
; GMMC12SC0015	GAGE1	16204006	0	;Skip this subcatchment: Area = 0
; GMMC12SC0016	GAGE1	16204007	0	;Skip this subcatchment: Area = 0
; GMMC12SC0017	GAGE1	16113007	0	;Skip this subcatchment: Area = 0
; GMMC12SC0018	GAGE1	16113006	0	;Skip this subcatchment: Area = 0
; GMMC12SC0019	GAGE1	16203003	0	;Skip this subcatchment: Area = 0
; GMMC12SC0020	GAGE1	16114015	0	;Skip this subcatchment: Area = 0
; GMMC12SC0021	GAGE1	16114014	0	;Skip this subcatchment: Area = 0
; GMMC12SC0022	GAGE1	16113005	0	;Skip this subcatchment: Area = 0
; GMMC12SC0025	GAGE1	16113001	0	;Skip this subcatchment: Area = 0
; GMMC12SC0026	GAGE1	16113002	0	;Skip this subcatchment: Area = 0
; GMMC12SC0027	GAGE1	16113003	0	;Skip this subcatchment: Area = 0
; GMMC12SC0028	GAGE1	16113004	0	;Skip this subcatchment: Area = 0
; GMMC12SC0029	GAGE1	16111020	0	;Skip this subcatchment: Area = 0
; GMMC12SC0030	GAGE1	16112005	0	;Skip this subcatchment: Area = 0
; GMMC12SC0031	GAGE1	16112006	0	;Skip this subcatchment: Area = 0
; GMMC12SC0032	GAGE1	16112007	0	;Skip this subcatchment: Area = 0
; GMMC12SC0033	GAGE1	16112001	0	;Skip this subcatchment: Area = 0
; GMMC12SC0034	GAGE1	16112002	0	;Skip this subcatchment: Area = 0
; GMMC12SC0035	GAGE1	16112003	0	;Skip this subcatchment: Area = 0
; GMMC12SC0036	GAGE1	16105007	0	;Skip this subcatchment: Area = 0
; GMMC12SC0038	GAGE1	16112008	0	;Skip this subcatchment: Area = 0
; GMMC12SC0039	GAGE1	16112004	0	;Skip this subcatchment: Area = 0
; GMMC12SC0040	GAGE1	16112009	0	;Skip this subcatchment: Area = 0
; GMMC12SC0041	GAGE1	16112010	0	;Skip this subcatchment: Area = 0
; GMMC12SC0042	GAGE1	16112011	0	;Skip this subcatchment: Area = 0
; GMMC12SC0043	GAGE1	16112012	0	;Skip this subcatchment: Area = 0
; GMMC12SC0044	GAGE1	16113008	0	;Skip this subcatchment: Area = 0
; GMMC12SC0045	GAGE1	16113009	0	;Skip this subcatchment: Area = 0
; GMMC12SC0046	GAGE1	19216015	0	;Skip this subcatchment: Area = 0
; GMMC12SC0047	GAGE1	16204008	0	;Skip this subcatchment: Area = 0
; GMMC12SC0048	GAGE1	16113019	0	;Skip this subcatchment: Area = 0
; GMMC12SC0049	GAGE1	16113018	0	;Skip this subcatchment: Area = 0
; GMMC12SC0050	GAGE1	16113017	0	;Skip this subcatchment: Area = 0
; GMMC12SC0051	GAGE1	16113016	0	;Skip this subcatchment: Area = 0
; GMMC12SC0052	GAGE1	19216005	0	;Skip this subcatchment: Area = 0
; GMMC12SC0053	GAGE1	19216004	0	;Skip this subcatchment: Area = 0
; GMMC12SC0054	GAGE1	19216003	0	;Skip this subcatchment: Area = 0
; GMMC12SC0055	GAGE1	19216014	0	;Skip this subcatchment: Area = 0
; GMMC12SC0056	GAGE1	19216002	0	;Skip this subcatchment: Area = 0
; GMMC12SC0023	GAGE1	16114013	0	;Skip this subcatchment: Area = 0
; GMMC13SC0005	GAGE1	19109019	0	;Skip this subcatchment: Area = 0
; GMMC13SC0006	GAGE1	19109018	0	;Skip this subcatchment: Area = 0
; GMMC13SC0007	GAGE1	19109017	0	;Skip this subcatchment: Area = 0
; GMMC13SC0008	GAGE1	19109013	0	;Skip this subcatchment: Area = 0
; GMMC13SC0009	GAGE1	19109012	0	;Skip this subcatchment: Area = 0
; GMMC13SC0011	GAGE1	19109016	0	;Skip this subcatchment: Area = 0
; GMMC13SC0012	GAGE1	19108013	0	;Skip this subcatchment: Area = 0
; GMMC13SC0013	GAGE1	19108012	0	;Skip this subcatchment: Area = 0
; GMMC13SC0014	GAGE1	19108011	0	;Skip this subcatchment: Area = 0
; GMMC13SC0015	GAGE1	19108009	0	;Skip this subcatchment: Area = 0
; GMMC13SC0016	GAGE1	19108007	0	;Skip this subcatchment: Area = 0
; GMMC13SC0017	GAGE1	19108010	0	;Skip this subcatchment: Area = 0
; GMMC13SC0018	GAGE1	19108006	0	;Skip this subcatchment: Area = 0
; GMMC13SC0019	GAGE1	19101022	0	;Skip this subcatchment: Area = 0
; GMMC13SC0020	GAGE1	19101021	0	;Skip this subcatchment: Area = 0
; GMMC13SC0021	GAGE1	19101020	0	;Skip this subcatchment: Area = 0
; GMMC13SC0022	GAGE1	19101019	0	;Skip this subcatchment: Area = 0
; GMMC13SC0023	GAGE1	19101016	0	;Skip this subcatchment: Area = 0
; GMMC13SC0024	GAGE1	19101015	0	;Skip this subcatchment: Area = 0
; GMMC13SC0025	GAGE1	19101013	0	;Skip this subcatchment: Area = 0
; GMMC13SC0026	GAGE1	19101014	0	;Skip this subcatchment: Area = 0