[OPTIONS]
;Option and Files Scenario Set: DWF_WEEKDAY
FLOW_UNITS		GPM
INFILTRATION		HORTON
FLOW_ROUTING		DYNWAVE
LINK_OFFSETS		DEPTH
MIN_SLOPE		0.000000
ALLOW_PONDING		YES
SKIP_STEADY_STATE 	NO
IGNORE_RAINFALL		YES
IGNORE_SNOWMELT		NO
IGNORE_GROUNDWATER	NO
IGNORE_QUALITY		NO

START_DATE		05/19/2014
START_TIME		00:00
REPORT_START_DATE	05/20/2014
REPORT_START_TIME	00:00
END_DATE		05/21/2014
END_TIME		00:00
SWEEP_START		01/01
SWEEP_END		12/31
DRY_DAYS		5.000000
REPORT_STEP		00:15:00
WET_STEP		00:00:30
DRY_STEP		01:00:00
ROUTING_STEP		30

INERTIAL_DAMPING	PARTIAL
NORMAL_FLOW_LIMITED	SLOPE
FORCE_MAIN_EQUATION	H-W
VARIABLE_STEP		0.750000
LENGTHENING_STEP	10
MIN_SURFAREA		0.000000
MAX_TRIALS		8
HEAD_TOLERANCE	0.005000
MINIMUM_STEP		0.000000


[FILES]
USE HOTSTART	"Z:\PROJECTS\231427_Bozeman_Wastewater_Facility_Plan\model\Current\DWF_2016_Update.HSF"

[RAINGAGES]
; City Shop
CITYSHOP	VOLUME	0.250000	1.000000	TIMESERIES	CITYSHOP		
; Lee Residence
LEERESIDENCE	VOLUME	0.250000	1.000000	TIMESERIES	LEERESIDENCE		
; Rain data from MesoWest F1907 for June 29
MESOWEST_29	VOLUME	0.083330	1.000000	FILE	-	-	IN
; MMI
MMI	VOLUME	0.250000	1.000000	TIMESERIES	MMI		
; rain data from MSU for june 29th 2018
MSU_29	VOLUME	0.083330	1.000000	TIMESERIES	MSU_29		
; rain data from Wunderground for june 29th 2018
WUNDERGROUND_29	VOLUME	0.250000	1.000000	TIMESERIES	WUNDERGROUND_29		

[HYDROGRAPHS]
; 
FUTURE	CITYSHOP
FUTURE	ALL	Short	0.003000	0.010000	10.000000	0.000000	0.000000	0.000000
FUTURE	ALL	Medium	0.001000	0.150000	1.000000	0.000000	0.000000	0.000000
FUTURE	ALL	Long	0.000000	0.000000	0.000000	0.000000	0.000000	0.000000
; 
H0204_CITY	CITYSHOP
H0204_CITY	ALL	Short	0.003000	0.005000	15.000000	0.000000	0.000000	0.000000
H0204_CITY	ALL	Medium	0.002000	0.200000	1.000000	0.000000	0.000000	0.000000
H0204_CITY	ALL	Long	0.000000	4.000000	2.000000	0.000000	0.000000	0.000000
; 
H0204_LEE	LEERESIDENCE
H0204_LEE	ALL	Short	0.004000	0.005000	15.000000	0.000000	0.000000	0.000000
H0204_LEE	ALL	Medium	0.002000	0.200000	1.000000	0.000000	0.000000	0.000000
H0204_LEE	ALL	Long	0.000000	4.000000	2.000000	0.000000	0.000000	0.000000
; 
H0204_MMI	MMI
H0204_MMI	ALL	Short	0.004000	0.005000	15.000000	0.000000	0.000000	0.000000
H0204_MMI	ALL	Medium	0.002000	0.200000	1.000000	0.000000	0.000000	0.000000
H0204_MMI	ALL	Long	0.000000	4.000000	2.000000	0.000000	0.000000	0.000000
; 
I0105_MMI	MMI
I0105_MMI	ALL	Short	0.006000	0.008000	10.000000	0.000000	0.000000	0.000000
I0105_MMI	ALL	Medium	0.001000	0.030000	2.000000	0.000000	0.000000	0.000000
I0105_MMI	ALL	Long	0.000000	4.000000	2.000000	0.000000	0.000000	0.000000
; 
I5014_CITY	CITYSHOP
I5014_CITY	ALL	Short	0.002000	0.010000	10.000000	0.000000	0.000000	0.000000
I5014_CITY	ALL	Medium	0.000000	0.100000	1.000000	0.000000	0.000000	0.000000
I5014_CITY	ALL	Long	0.000000	4.000000	2.000000	0.000000	0.000000	0.000000
; 
I5014_LEE	LEERESIDENCE
I5014_LEE	ALL	Short	0.002000	0.010000	10.000000	0.000000	0.000000	0.000000
I5014_LEE	ALL	Medium	0.000000	0.100000	1.000000	0.000000	0.000000	0.000000
I5014_LEE	ALL	Long	0.000000	4.000000	2.000000	0.000000	0.000000	0.000000
; 
J0002_MMI	MMI
J0002_MMI	ALL	Short	0.001000	0.010000	10.000000	0.000000	0.000000	0.000000
J0002_MMI	ALL	Medium	0.001000	0.200000	1.000000	0.000000	0.000000	0.000000
J0002_MMI	ALL	Long	0.000000	4.000000	2.000000	0.000000	0.000000	0.000000

[TEMPERATURE]

[ADJUSTMENTS]

[SUBCATCHMENTS]

[SUBAREAS]

[INFILTRATION]

[AQUIFERS]

[GROUNDWATER]

[GWF]

[SNOWPACKS]

[JUNCTIONS]
000001	4701.121027	37.878973	0.000000	1000.000000	0.000000
000002	4704.877354	42.608309	0.000000	1000.000000	0.000000
000004	4712.342536	45.657464	0.000000	1000.000000	0.000000
000005	4716.071306	42.928694	0.000000	1000.000000	0.000000
000006	4719.775321	48.224679	0.000000	1000.000000	0.000000
000007	4723.520809	41.979191	0.000000	1000.000000	0.000000
000008	4727.260119	38.239881	0.000000	1000.000000	0.000000
000009	4730.991123	38.008877	0.000000	1000.000000	0.000000
000010	4734.716248	36.283752	0.000000	1000.000000	0.000000
000011	4799.469597	41.530403	0.000000	1000.000000	0.000000
000012	4801.781428	43.218572	0.000000	1000.000000	0.000000
000013	4804.087844	43.846550	0.000000	1000.000000	0.000000
000014	4806.395000	44.703830	0.000000	1000.000000	0.000000
000015	4808.703644	44.447524	0.000000	1000.000000	0.000000
000016	4617.020000	35.399479	0.000000	1000.000000	0.000000
000018	4738.398867	35.101133	0.000000	1000.000000	0.000000
000019	4738.398867	35.101133	0.000000	1000.000000	0.000000
000020	4737.640000	33.860000	0.000000	1000.000000	0.000000
000021	4737.640000	35.860000	0.000000	1000.000000	0.000000
000022	4737.646757	31.750622	0.000000	1000.000000	0.000000
000023	4737.646757	31.865811	0.000000	1000.000000	0.000000
000024	4737.901000	22.099000	0.000000	1000.000000	0.000000
000025	4737.900932	27.599068	0.000000	1000.000000	0.000000
000026	4738.154929	29.586066	0.000000	1000.000000	0.000000
000027	4738.154929	29.864621	0.000000	1000.000000	0.000000
000028	4601.000000	29.000000	0.000000	1000.000000	0.000000
9999	4797.000000	6.000000	0.000000	0.000000	0.000000
A0601	4803.010000	41.990000	0.000000	0.000000	0.000000
A0602	4800.100000	39.900000	0.000000	0.000000	0.000000
A0602A	4797.110000	37.890000	0.000000	0.000000	0.000000
B0501	4794.070000	39.930000	0.000000	0.000000	0.000000
B0502	4791.130000	38.870000	0.000000	0.000000	0.000000
B0503	4788.100000	37.900000	0.000000	0.000000	0.000000
B0504	4791.890000	38.110000	0.000000	0.000000	0.000000
B0505	4786.000000	39.000000	0.000000	0.000000	0.000000
B0506	4783.030000	36.970000	0.000000	0.000000	0.000000
B0507	4780.030000	37.970000	0.000000	0.000000	0.000000
B0508	4775.270000	39.730000	0.000000	0.000000	0.000000
B0509	4789.780000	35.220000	0.000000	0.000000	0.000000
B0510	4783.850000	39.150000	0.000000	0.000000	0.000000
B0511	4793.990000	37.010000	0.000000	0.000000	0.000000
B0512	4795.100000	35.900000	0.000000	0.000000	0.000000
B0513	4795.630000	35.370000	0.000000	0.000000	0.000000
B0601	4799.330000	35.670000	0.000000	0.000000	0.000000
B0602	4798.240000	34.760000	0.000000	0.000000	0.000000
C0101	4744.180000	24.820000	0.000000	0.000000	0.000000
C0102	4743.100000	24.900000	0.000000	0.000000	0.000000
C0103	4742.110000	22.890000	0.000000	0.000000	0.000000
C0104	4741.240000	23.760000	0.000000	0.000000	0.000000
C0105	4742.320000	22.680000	0.000000	0.000000	0.000000
C0106	4744.920000	24.080000	0.000000	0.000000	0.000000
C0107	4755.577000	24.423000	0.000000	0.000000	0.000000
C0108	4756.307000	25.693000	0.000000	0.000000	0.000000
C0109	4757.247000	22.753000	0.000000	0.000000	0.000000
C0110	4757.517000	26.483000	0.000000	0.000000	0.000000
C0111	4758.867000	26.133000	0.000000	0.000000	0.000000
C0112	4758.477000	9.790000	0.000000	0.000000	0.000000
C0113	4758.907000	30.093000	0.000000	0.000000	0.000000
C0114	4759.337000	29.663000	0.000000	0.000000	0.000000
C0115	4760.257000	29.743000	0.000000	0.000000	0.000000
C0116	4760.707000	9.910000	0.000000	0.000000	0.000000
C0117	4761.107000	8.700000	0.000000	0.000000	0.000000
C0118	4761.907000	24.093000	0.000000	0.000000	0.000000
C0119	4762.577000	21.423000	0.000000	0.000000	0.000000
C0120	4763.127000	21.873000	0.000000	0.000000	0.000000
C0121	4764.167000	4.650000	0.000000	0.000000	0.000000
C0122	4763.757000	24.243000	0.000000	0.000000	0.000000
C0123	4764.337000	24.663000	0.000000	0.000000	0.000000
C0124	4765.167000	24.833000	0.000000	0.000000	0.000000
C0125	4766.027000	25.973000	0.000000	0.000000	0.000000
C0126	4766.727000	25.273000	0.000000	0.000000	0.000000
C0127	4754.997000	27.003000	0.000000	0.000000	0.000000
C0128	4754.387000	28.613000	0.000000	0.000000	0.000000
C0129	4755.487000	27.513000	0.000000	0.000000	0.000000
C0130	4755.927000	7.940000	0.000000	0.000000	0.000000
C0131	4756.037000	8.380000	0.000000	0.000000	0.000000
C0132	4756.507000	28.493000	0.000000	0.000000	0.000000
C0133	4747.097000	28.903000	0.000000	0.000000	0.000000
C0134	4742.637000	31.363000	0.000000	0.000000	0.000000
C0135	4738.847000	29.153000	0.000000	0.000000	0.000000
C0136	4735.377000	28.623000	0.000000	0.000000	0.000000
C0501	4773.000000	37.000000	0.000000	0.000000	0.000000
C0501A	4771.190000	38.810000	0.000000	0.000000	0.000000
C0502	4769.220000	35.780000	0.000000	0.000000	0.000000
C0502A	4768.410000	36.590000	0.000000	0.000000	0.000000
C0503	4767.620000	37.380000	0.000000	0.000000	0.000000
C0504	4766.370000	38.630000	0.000000	0.000000	0.000000
; POST
C0505	4780.210000	29.790000	0.000000	0.000000	0.000000
C0506	4778.720000	31.280000	0.000000	0.000000	0.000000
C0507	4778.240000	36.760000	0.000000	0.000000	0.000000
C0508	4782.130000	47.870000	0.000000	0.000000	0.000000
C0509	4805.420000	42.580000	0.000000	0.000000	0.000000
C0510	4801.420000	23.580000	0.000000	0.000000	0.000000
C0511	4800.390000	22.610000	0.000000	0.000000	0.000000
C0512	4791.070000	28.930000	0.000000	0.000000	10.000000
C0513	4790.350000	30.650000	0.000000	0.000000	0.000000
C0514	4785.570000	34.430000	0.000000	0.000000	0.000000
C0515	4766.910000	36.090000	0.000000	0.000000	0.000000
C0516	4766.940000	36.060000	0.000000	0.000000	0.000000
C0517	4766.290000	35.710000	0.000000	0.000000	0.000000
C0518	4765.380000	35.620000	0.000000	0.000000	0.000000
C0519	4788.050000	33.950000	0.000000	0.000000	0.000000
C0520	4788.590000	39.410000	0.000000	0.000000	0.000000
C0521	4794.780000	45.220000	0.000000	0.000000	0.000000
C0522	4816.960000	28.040000	0.000000	0.000000	0.000000
C0523	4810.370000	27.630000	0.000000	0.000000	0.000000
C0524	4809.430000	34.570000	0.000000	0.000000	0.000000
C0525	4812.210000	32.790000	0.000000	0.000000	0.000000
C0526	4816.330000	28.670000	0.000000	0.000000	0.000000
C0527	4820.940000	29.060000	0.000000	0.000000	0.000000
C0528	4822.630000	28.370000	0.000000	0.000000	0.000000
C0601	4861.450000	18.550000	0.000000	0.000000	0.000000
C0602	4828.950000	31.050000	0.000000	0.000000	0.000000
C0603	4822.320000	42.680000	0.000000	0.000000	0.000000
C0604	4817.920000	42.080000	0.000000	0.000000	0.000000
C0605	4812.390000	32.610000	0.000000	0.000000	0.000000
C0606	4807.170000	22.830000	0.000000	0.000000	0.000000
C0607	4802.780000	25.220000	0.000000	0.000000	0.000000
C0608	4799.070000	24.930000	0.000000	0.000000	0.000000
C0609	4796.650000	30.350000	0.000000	0.000000	0.000000
C0610	4835.380000	24.620000	0.000000	0.000000	0.000000
C0611	4838.350000	31.650000	0.000000	0.000000	0.000000
C0612	4839.870000	36.130000	0.000000	0.000000	0.000000
C0613	4840.300000	28.700000	0.000000	0.000000	0.000000
C0614	4842.430000	32.570000	0.000000	0.000000	0.000000
C0615	4843.630000	36.370000	0.000000	0.000000	0.000000
C0616	4844.670000	25.330000	0.000000	0.000000	0.000000
C0617	4846.800000	33.200000	0.000000	0.000000	0.000000
C0618	4843.960000	8.820000	0.000000	0.000000	0.000000
C0619	4851.760000	31.240000	0.000000	0.000000	0.000000
C0624	4836.496000	24.504000	0.000000	0.000000	0.000000
C0625	4838.206000	5.240000	0.000000	0.000000	0.000000
C0626	4845.306000	22.694000	0.000000	0.000000	0.000000
C0627	4836.927000	5.590000	0.000000	0.000000	0.000000
C0628	4837.597000	22.403000	0.000000	0.000000	0.000000
D0101	4705.900000	25.100000	0.000000	0.000000	0.000000
D0102	4707.060000	22.940000	0.000000	0.000000	0.000000
D0103	4708.220000	24.780000	0.000000	0.000000	0.000000
D0104	4709.100000	22.900000	0.000000	0.000000	0.000000
D0105	4710.010000	22.990000	0.000000	0.000000	0.000000
D0106	4712.450000	27.550000	0.000000	0.000000	0.000000
D0107	4713.600000	26.400000	0.000000	0.000000	0.000000
D0108	4715.580000	24.420000	0.000000	0.000000	0.000000
D0109	4721.400000	23.600000	0.000000	0.000000	0.000000
D0110	4720.710000	26.290000	0.000000	0.000000	0.000000
D0111	4720.410000	27.590000	0.000000	0.000000	0.000000
D0112	4724.190000	26.810000	0.000000	0.000000	0.000000
D0113	4723.400000	27.600000	0.000000	0.000000	0.000000
D0114	4728.160000	26.840000	0.000000	0.000000	0.000000
D0115	4727.430000	30.570000	0.000000	0.000000	0.000000
D0116	4736.210000	25.790000	0.000000	0.000000	0.000000
D0117	4735.470000	27.530000	0.000000	0.000000	0.000000
D0118	4706.680000	24.320000	0.000000	0.000000	0.000000
D0119	4707.180000	25.820000	0.000000	0.000000	0.000000
D0120	4707.980000	27.020000	0.000000	0.000000	0.000000
D0121	4710.410000	27.590000	0.000000	0.000000	0.000000
D0122	4713.110000	26.890000	0.000000	0.000000	0.000000
D0123	4713.847000	31.153000	0.000000	0.000000	0.000000
D0124	4712.810000	25.190000	0.000000	0.000000	0.000000
D0125	4712.730000	28.270000	0.000000	0.000000	0.000000
D0126	4719.700000	23.300000	0.000000	0.000000	0.000000
D0127	4718.900000	24.100000	0.000000	0.000000	0.000000
D0128	4717.730000	22.270000	0.000000	0.000000	0.000000
D0129	4713.340000	23.660000	0.000000	0.000000	0.000000
D0130	4710.620000	25.380000	0.000000	0.000000	0.000000
D0131	4709.470000	25.530000	0.000000	0.000000	0.000000
D0132	4710.050000	22.950000	0.000000	0.000000	0.000000
D0133	4707.970000	27.030000	0.000000	0.000000	0.000000
D0134	4715.437000	32.563000	0.000000	0.000000	0.000000
D0135	4718.097000	26.903000	0.000000	0.000000	0.000000
D0136	4720.427000	29.573000	0.000000	0.000000	0.000000
D0137	4724.337000	30.663000	0.000000	0.000000	0.000000
D0138	4727.647000	32.353000	0.000000	0.000000	0.000000
D0139	4728.049000	26.951000	0.000000	0.000000	0.000000
D0140	4725.009000	25.991000	0.000000	0.000000	0.000000
D0141	4721.849000	28.151000	0.000000	0.000000	0.000000
D0142	4723.029000	26.971000	0.000000	0.000000	0.000000
D0143	4724.509000	27.491000	0.000000	0.000000	0.000000
D0144	4725.349000	27.651000	0.000000	0.000000	0.000000
D0145	4726.059000	29.941000	0.000000	0.000000	0.000000
D0146	4726.629000	28.371000	0.000000	0.000000	0.000000
D0147	4727.069000	10.320000	0.000000	0.000000	0.000000
D0148	4728.449000	29.551000	0.000000	0.000000	0.000000
D0149	4730.069000	28.931000	0.000000	0.000000	0.000000
D0150	4731.629000	27.371000	0.000000	0.000000	0.000000
D0151	4725.256000	30.744000	0.000000	0.000000	0.000000
D0152	4729.416000	29.584000	0.000000	0.000000	0.000000
D0153	4730.536000	32.464000	0.000000	0.000000	0.000000
D0154	4731.616000	28.384000	0.000000	0.000000	0.000000
D0155	4732.496000	28.504000	0.000000	0.000000	0.000000
D0156	4734.296000	26.704000	0.000000	0.000000	0.000000
D0157	4734.726000	30.274000	0.000000	0.000000	0.000000
D0401	4780.120000	43.880000	0.000000	0.000000	0.000000
D0402	4777.730000	47.270000	0.000000	0.000000	0.000000
D0403	4777.410000	48.590000	0.000000	0.000000	0.000000
D0404	4776.850000	48.150000	0.000000	0.000000	0.000000
D0405	4775.440000	14.560000	0.000000	0.000000	0.000000
D0406	4774.450000	43.550000	0.000000	0.000000	0.000000
D0407	4773.450000	46.550000	0.000000	0.000000	0.000000
D0408	4774.550000	45.450000	0.000000	0.000000	0.000000
D0409	4780.390000	40.610000	0.000000	0.000000	0.000000
D0410	4779.760000	44.240000	0.000000	0.000000	0.000000
D0411	4773.000000	43.270000	0.000000	0.000000	0.000000
D0412	4772.160000	32.840000	0.000000	0.000000	0.000000
D0413	4756.860000	41.140000	0.000000	0.000000	0.000000
D0414	4753.350000	24.650000	0.000000	0.000000	0.000000
; Inflow Protector
D0415	4752.750000	27.250000	0.000000	0.000000	0.000000
; Inflow Protector
D0416	4755.400000	22.600000	0.000000	0.000000	0.000000
; Inflow Protector
D0417	4757.630000	22.370000	0.000000	0.000000	0.000000
; Inflow Protector
D0418	4759.860000	50.140000	0.000000	0.000000	0.000000
; Inflow Protector
D0419	4750.250000	21.750000	0.000000	0.000000	0.000000
D0420	4747.770000	27.230000	0.000000	0.000000	0.000000
D0421	4746.980000	28.020000	0.000000	0.000000	0.000000
D0501	4775.160000	29.840000	0.000000	0.000000	0.000000
D0502	4771.920000	26.080000	0.000000	0.000000	0.000000
D0503	4848.330000	51.670000	0.000000	0.000000	0.000000
D0504	4833.880000	41.120000	0.000000	0.000000	0.000000
; under grass in ball park
D0505	4819.210000	35.790000	0.000000	0.000000	0.000000
D0506	4806.010000	33.990000	0.000000	0.000000	0.000000
; drop manhole
D0507	4792.280000	37.720000	0.000000	0.000000	0.000000
D0508	4771.470000	58.530000	0.000000	0.000000	0.000000
D0509	4769.430000	28.570000	0.000000	0.000000	0.000000
D0510	4767.290000	22.710000	0.000000	0.000000	0.000000
D0511	4764.670000	24.330000	0.000000	0.000000	0.000000
; Inflow Protector
D0512	4761.860000	23.140000	0.000000	0.000000	0.000000
D0514	4783.320000	50.680000	0.000000	0.000000	0.000000
D0515	4782.510000	44.490000	0.000000	0.000000	0.000000
D0516	4789.840000	40.160000	0.000000	0.000000	0.000000
D0517	4789.070000	31.930000	0.000000	0.000000	0.000000
D0518	4780.930000	32.070000	0.000000	0.000000	0.000000
D0519	4786.200000	38.800000	0.000000	0.000000	0.000000
D0520	4779.060000	31.940000	0.000000	0.000000	0.000000
D0521	4785.700000	47.300000	0.000000	0.000000	0.000000
D0522	4784.380000	39.620000	0.000000	0.000000	0.000000
D0523	4781.900000	42.100000	0.000000	0.000000	0.000000
D0524	4779.980000	45.020000	0.000000	0.000000	0.000000
D0525	4778.430000	42.570000	0.000000	0.000000	0.000000
D0526	4775.870000	33.840000	0.000000	0.000000	0.000000
D0527	4774.930000	39.070000	0.000000	0.000000	0.000000
D0528	4762.320000	50.680000	0.000000	0.000000	0.000000
D0529	4819.260000	25.740000	0.000000	0.000000	0.000000
D0530	4813.150000	26.850000	0.000000	0.000000	0.000000
D0531	4816.900000	38.100000	0.000000	0.000000	0.000000
D0601	4915.950000	44.050000	0.000000	0.000000	0.000000
D0602	4891.780000	48.220000	0.000000	0.000000	0.000000
D0603	4882.790000	48.210000	0.000000	0.000000	0.000000
D0604	4875.780000	49.220000	0.000000	0.000000	0.000000
D0605	4868.830000	46.170000	0.000000	0.000000	0.000000
D0606	4865.928000	39.072000	0.000000	0.000000	0.000000
D0607	4865.220000	39.780000	0.000000	0.000000	0.000000
D0608	4869.310000	30.690000	0.000000	0.000000	0.000000
D0609	4870.170000	34.830000	0.000000	0.000000	0.000000
D0610	4873.380000	41.620000	0.000000	0.000000	0.000000
D0611	4876.060000	42.940000	0.000000	0.000000	0.000000
D0612	4875.850000	42.130000	0.000000	0.000000	0.000000
D0614	4830.800000	39.200000	0.000000	0.000000	0.000000
D0615	4842.910000	37.090000	0.000000	0.000000	0.000000
D0616	4850.000000	40.000000	0.000000	0.000000	0.000000
D0620	4873.710000	36.290000	0.000000	0.000000	0.000000
; tie in to existing sewer
D0621	4873.240000	31.620000	0.000000	0.000000	0.000000
D0622	4877.730000	52.270000	0.000000	0.000000	0.000000
D0623	4876.430000	58.600000	0.000000	0.000000	0.000000
D0701	4983.120000	34.880000	0.000000	0.000000	0.000000
D0702	4993.410000	31.590000	0.000000	0.000000	0.000000
D0703	4980.110000	27.890000	0.000000	0.000000	0.000000
D0704	4961.610000	23.390000	0.000000	0.000000	0.000000
D0705	4960.040000	39.960000	0.000000	0.000000	0.000000
D0706	4954.610000	37.390000	0.000000	0.000000	0.000000
D0707	4934.610000	15.390000	0.000000	0.000000	0.000000
D0708	4904.070000	22.930000	0.000000	0.000000	0.000000
D0709	4902.990000	27.010000	0.000000	0.000000	0.000000
D0710	4901.590000	28.410000	0.000000	0.000000	0.000000
D0711	4985.410000	34.590000	0.000000	0.000000	0.000000
D0711A	4981.760000	33.240000	0.000000	0.000000	0.000000
D0712	4977.710000	32.290000	0.000000	0.000000	0.000000
D0713	4976.200000	41.800000	0.000000	0.000000	0.000000
D0714	4967.710000	32.290000	0.000000	0.000000	0.000000
D0715	4958.370000	36.630000	0.000000	0.000000	0.000000
D0716	4928.910000	41.090000	0.000000	0.000000	0.000000
D0716A	4934.960000	40.040000	0.000000	0.000000	0.000000
D0717	4919.910000	20.090000	0.000000	0.000000	0.000000
D0718	4906.410000	20.590000	0.000000	0.000000	0.000000
D0719	4971.350000	33.650000	0.000000	0.000000	0.000000
D0720	4967.370000	37.630000	0.000000	0.000000	0.000000
D0721	4994.110000	30.890000	0.000000	0.000000	0.000000
D0722	4966.710000	33.290000	0.000000	0.000000	0.000000
D0723	4960.610000	34.390000	0.000000	0.000000	0.000000
D0724	4950.610000	34.390000	0.000000	0.000000	0.000000
D0725	4996.610000	39.390000	0.000000	0.000000	0.000000
D0726	4970.910000	39.090000	0.000000	0.000000	0.000000
D0727	4998.110000	31.890000	0.000000	0.000000	0.000000
D0728	4981.110000	28.890000	0.000000	0.000000	0.000000
D0729	4987.110000	33.890000	0.000000	0.000000	0.000000
D0729A	4979.110000	30.890000	0.000000	0.000000	0.000000
D0730	4977.010000	27.990000	0.000000	0.000000	0.000000
D0731	4960.710000	24.290000	0.000000	0.000000	0.000000
D0732	4946.710000	38.290000	0.000000	0.000000	0.000000
D0733	4976.070000	38.930000	0.000000	0.000000	0.000000
D0734	4963.110000	31.890000	0.000000	0.000000	0.000000
D0735	4987.610000	32.390000	0.000000	0.000000	0.000000
D0736	4963.010000	31.990000	0.000000	0.000000	0.000000
D0736A	4969.610000	30.390000	0.000000	0.000000	0.000000
D0737	4951.610000	28.390000	0.000000	0.000000	0.000000
D0738	4974.610000	36.390000	0.000000	0.000000	0.000000
D0739	4954.610000	39.390000	0.000000	0.000000	0.000000
D0740	4943.610000	33.390000	0.000000	0.000000	0.000000
D0741	4942.760000	32.240000	0.000000	0.000000	0.000000
D0742	4936.710000	38.290000	0.000000	0.000000	0.000000
D0743	4905.350000	35.650000	0.000000	0.000000	0.000000
D0743A	4927.210000	21.790000	0.000000	0.000000	0.000000
D0744	4904.420000	27.580000	0.000000	0.000000	0.000000
D0745	4903.740000	26.260000	0.000000	0.000000	0.000000
D0746	4939.710000	35.290000	0.000000	0.000000	0.000000
D0747	4902.770000	7.230000	0.000000	0.000000	0.000000
D0747A	4924.710000	25.290000	0.000000	0.000000	0.000000
D0748	4897.350000	7.650000	0.000000	0.000000	0.000000
D0748A	4901.920000	23.080000	0.000000	0.000000	0.000000
D0749	4896.010000	25.250000	0.000000	0.000000	0.000000
D0750	4875.980000	34.020000	0.000000	0.000000	0.000000
D0751	4866.520000	38.480000	0.000000	0.000000	0.000000
D0752	4948.980000	36.020000	0.000000	0.000000	0.000000
E0001	4777.550000	27.450000	0.000000	0.000000	0.000000
E0002	4775.740000	18.260000	0.000000	0.000000	0.000000
E0003	4755.150000	19.850000	0.000000	0.000000	0.000000
E0004	4753.890000	34.110000	0.000000	0.000000	0.000000
E0005	4749.210000	10.790000	0.000000	0.000000	0.000000
E0006	4747.930000	11.070000	0.000000	0.000000	0.000000
E0007	4730.290000	27.710000	0.000000	0.000000	0.000000
E0008	4717.200000	22.800000	0.000000	0.000000	0.000000
E0009	4715.040000	24.960000	0.000000	0.000000	0.000000
E0010	4707.950000	22.050000	0.000000	0.000000	0.000000
E0011	4704.340000	28.660000	0.000000	0.000000	0.000000
E0012	4689.500000	25.500000	0.000000	0.000000	0.000000
E0013	4686.070000	23.930000	0.000000	0.000000	0.000000
E0014	4716.160000	28.840000	0.000000	0.000000	0.000000
E0014A	4715.360000	21.640000	0.000000	0.000000	0.000000
E0015	4706.780000	33.220000	0.000000	0.000000	0.000000
E0016	4683.210000	26.790000	0.000000	0.000000	0.000000
E0017	4679.620000	15.380000	0.000000	0.000000	0.000000
E0018	4700.870000	23.130000	0.000000	0.000000	0.000000
E0019	4698.710000	31.290000	0.000000	0.000000	0.000000
E0020	4678.250000	15.750000	0.000000	0.000000	0.000000
E0021	4676.300000	19.700000	0.000000	0.000000	0.000000
E0055	4684.380000	35.620000	0.000000	0.000000	0.000000
E0062	4676.380000	23.620000	0.000000	0.000000	0.000000
E0063	4677.060000	26.940000	0.000000	0.000000	0.000000
E0064	4678.770000	26.230000	0.000000	0.000000	0.000000
E0065	4679.920000	25.080000	0.000000	0.000000	0.000000
E0071	4672.730000	23.270000	0.000000	0.000000	0.000000
E0081	4668.260000	27.740000	0.000000	0.000000	0.000000
E0082	4670.080000	24.920000	0.000000	0.000000	0.000000
E0101	4696.860000	28.140000	0.000000	0.000000	0.000000
E0101A	4696.140000	28.860000	0.000000	0.000000	0.000000
E0102	4694.060000	27.940000	0.000000	0.000000	0.000000
E0103	4692.220000	22.780000	0.000000	0.000000	0.000000
E0104	4693.820000	23.180000	0.000000	0.000000	0.000000
E0105	4693.320000	24.680000	0.000000	0.000000	0.000000
E0106	4691.720000	25.280000	0.000000	0.000000	0.000000
E0107	4694.910000	25.090000	0.000000	0.000000	0.000000
E0108	4691.940000	28.060000	0.000000	0.000000	0.000000
E0109	4690.270000	25.730000	0.000000	0.000000	0.000000
E0110	4688.750000	23.250000	0.000000	0.000000	0.000000
E0110A	4690.290000	19.710000	0.000000	0.000000	0.000000
E0111	4694.060000	10.940000	0.000000	0.000000	0.000000
E0112	4691.970000	17.030000	0.000000	0.000000	0.000000
E0113	4688.540000	23.460000	0.000000	0.000000	0.000000
E0114	4687.780000	22.220000	0.000000	0.000000	0.000000
E0115	4687.150000	22.850000	0.000000	0.000000	0.000000
E0116	4690.480000	23.520000	0.000000	0.000000	0.000000
E0117	4695.180000	22.820000	0.000000	0.000000	0.000000
E0118	4690.890000	24.110000	0.000000	0.000000	0.000000
E0119	4689.400000	25.600000	0.000000	0.000000	0.000000
E0120	4697.730000	24.270000	0.000000	0.000000	0.000000
E0121	4696.120000	23.880000	0.000000	0.000000	0.000000
E0122	4699.490000	28.510000	0.000000	0.000000	0.000000
E0123	4704.320000	25.680000	0.000000	0.000000	0.000000
E0124	4705.850000	28.400000	0.000000	0.000000	0.000000
E0125	4702.860000	27.140000	0.000000	0.000000	0.000000
E0126	4701.070000	26.930000	0.000000	0.000000	0.000000
E0127	4698.690000	26.310000	0.000000	0.000000	0.000000
E0128	4696.660000	23.340000	0.000000	0.000000	0.000000
E0129	4694.020000	25.980000	0.000000	0.000000	0.000000
E0130	4693.310000	24.690000	0.000000	0.000000	0.000000
E0131	4688.470000	27.530000	0.000000	0.000000	0.000000
E0132	4683.400000	25.600000	0.000000	0.000000	0.000000
E0133	4682.140000	23.860000	0.000000	0.000000	0.000000
E0134	4681.370000	22.630000	0.000000	0.000000	0.000000
E0135	4680.140000	22.860000	0.000000	0.000000	0.000000
E0136	4678.960000	21.040000	0.000000	0.000000	0.000000
E0137	4702.370000	22.630000	0.000000	0.000000	0.000000
E0138	4701.840000	25.160000	0.000000	0.000000	0.000000
E0139	4699.390000	22.610000	0.000000	0.000000	0.000000
E0140	4703.140000	24.860000	0.000000	0.000000	0.000000
E0141	4702.400000	22.600000	0.000000	0.000000	0.000000
E0142	4699.110000	22.890000	0.000000	0.000000	0.000000
E0143	4697.450000	27.550000	0.000000	0.000000	0.000000
E0144	4693.450000	26.550000	0.000000	0.000000	0.000000
E0145	4690.430000	24.570000	0.000000	0.000000	0.000000
E0146	4687.050000	22.950000	0.000000	0.000000	0.000000
E0147	4683.880000	25.120000	0.000000	0.000000	0.000000
E0148	4677.540000	27.460000	0.000000	0.000000	0.000000
E0149	4683.120000	25.880000	0.000000	0.000000	0.000000
E0150	4680.830000	26.170000	0.000000	0.000000	0.000000
E0151	4678.890000	26.110000	0.000000	0.000000	0.000000
E0152	4676.710000	26.290000	0.000000	0.000000	0.000000
E0153	4684.740000	25.260000	0.000000	0.000000	0.000000
E0154	4684.520000	25.480000	0.000000	0.000000	0.000000
E0155	4684.000000	25.000000	0.000000	0.000000	0.000000
E0156	4683.700000	26.300000	0.000000	0.000000	0.000000
E0157	4682.600000	24.400000	0.000000	0.000000	0.000000
E0158	4683.080000	23.920000	0.000000	0.000000	0.000000
E0159	4682.880000	24.120000	0.000000	0.000000	0.000000
E0160	4682.580000	28.710000	0.000000	0.000000	0.000000
E0161	4682.180000	22.820000	0.000000	0.000000	0.000000
E0162	4681.610000	26.400000	0.000000	0.000000	0.000000
; T going east
E0163	4695.130000	24.870000	0.000000	0.000000	0.000000
E0164	4695.530000	29.470000	0.000000	0.000000	0.000000
E0165	4696.780000	28.220000	0.000000	0.000000	0.000000
E0166	4697.820000	31.180000	0.000000	0.000000	0.000000
E0167	4699.000000	32.000000	0.000000	0.000000	0.000000
E0168	4699.910000	29.090000	0.000000	0.000000	0.000000
E0169	4689.830000	25.170000	0.000000	0.000000	0.000000
E0170	4690.770000	21.230000	0.000000	0.000000	0.000000
E0171	4692.050000	22.950000	0.000000	0.000000	0.000000
E0172	4692.990000	24.010000	0.000000	0.000000	0.000000
; Inflow Protector
E0173	4695.670000	10.330000	0.000000	0.000000	0.000000
E0174	4695.230000	12.770000	0.000000	0.000000	0.000000
E0175	4694.320000	10.680000	0.000000	0.000000	0.000000
E0176	4690.361000	24.639000	0.000000	0.000000	0.000000
E0177	4688.651000	23.349000	0.000000	0.000000	0.000000
E0178	4687.181000	22.819000	0.000000	0.000000	0.000000
E0179	4685.981000	24.019000	0.000000	0.000000	0.000000
E0180	4684.621000	10.220000	0.000000	0.000000	0.000000
E0181	4684.211000	10.530000	0.000000	0.000000	0.000000
E0182	4684.031000	11.990000	0.000000	1000.000000	0.000000
E0183	4689.121000	8.910000	0.000000	0.000000	0.000000
E0184	4691.251000	5.750000	0.000000	0.000000	0.000000
E0201	4719.510000	24.490000	0.000000	0.000000	0.000000
E0202	4712.570000	22.430000	0.000000	0.000000	0.000000
E0203	4712.520000	29.480000	0.000000	0.000000	0.000000
E0204	4712.350000	27.650000	0.000000	0.000000	0.000000
E0205	4711.230000	25.770000	0.000000	0.000000	0.000000
E0206	4710.490000	24.510000	0.000000	0.000000	0.000000
E0207	4709.730000	23.270000	0.000000	0.000000	0.000000
E0208	4711.510000	23.490000	0.000000	0.000000	0.000000
E0209	4708.390000	21.610000	0.000000	0.000000	0.000000
E0212	4724.000000	28.000000	0.000000	0.000000	0.000000
E0213	4705.910000	29.090000	0.000000	0.000000	0.000000
; Not in Service
E0214	4707.930000	25.070000	0.000000	0.000000	0.000000
; Not in Service
E0215	4708.680000	23.320000	0.000000	0.000000	0.000000
E0222	4706.800000	23.200000	0.000000	0.000000	0.000000
E0301	4756.070000	25.930000	0.000000	0.000000	0.000000
E0302	4752.440000	25.560000	0.000000	0.000000	0.000000
E0303	4748.880000	21.120000	0.000000	0.000000	0.000000
E0305	4739.000000	21.000000	0.000000	0.000000	0.000000
E0306	4741.400000	24.600000	0.000000	0.000000	0.000000
E0306A	4740.170000	21.830000	0.000000	0.000000	0.000000
E0307	4744.080000	23.920000	0.000000	0.000000	0.000000
; 10 inch
E0308	4746.130000	23.870000	0.000000	0.000000	0.000000
E0309	4746.980000	24.020000	0.000000	0.000000	0.000000
E0310	4751.530000	26.470000	0.000000	0.000000	0.000000
; double entry
E0311	4749.940000	25.060000	0.000000	0.000000	0.000000
E0312	4748.320000	22.680000	0.000000	0.000000	0.000000
E0313	4749.400000	20.600000	0.000000	0.000000	0.000000
E0314	4759.020000	20.980000	0.000000	0.000000	0.000000
E0315	4755.110000	21.890000	0.000000	0.000000	0.000000
E0316	4752.120000	21.880000	0.000000	0.000000	0.000000
E0317	4749.450000	22.550000	0.000000	0.000000	0.000000
E0318	4740.670000	28.330000	0.000000	0.000000	0.000000
E0319	4741.470000	28.530000	0.000000	0.000000	0.000000
E0320	4742.280000	26.720000	0.000000	0.000000	0.000000
E0321	4745.760000	28.240000	0.000000	0.000000	0.000000
E0322	4744.350000	27.650000	0.000000	0.000000	0.000000
; 14inch
E0323	4743.040000	27.960000	0.000000	0.000000	0.000000
E0324	4743.790000	26.210000	0.000000	0.000000	0.000000