[TITLE]
;;Project Title/Notes

[OPTIONS]
;;Option             Value
FLOW_UNITS           CFS
INFILTRATION         HORTON
FLOW_ROUTING         DYNWAVE
LINK_OFFSETS         DEPTH
MIN_SLOPE            0
ALLOW_PONDING        NO
SKIP_STEADY_STATE    NO

START_DATE           08/01/2005
START_TIME           00:00:00
REPORT_START_DATE    08/01/2005
REPORT_START_TIME    00:00:00
END_DATE             08/03/2005
END_TIME             00:00:00
SWEEP_START          1/1
SWEEP_END            12/31
DRY_DAYS             0
REPORT_STEP          00:15:00
WET_STEP             00:01:00
DRY_STEP             24:00:00
ROUTING_STEP         0:01:00 

INERTIAL_DAMPING     PARTIAL
NORMAL_FLOW_LIMITED  FROUDE
FORCE_MAIN_EQUATION  H-W
VARIABLE_STEP        0.75
LENGTHENING_STEP     0
MIN_SURFAREA         0
MAX_TRIALS           0
HEAD_TOLERANCE       0
SYS_FLOW_TOL         5
LAT_FLOW_TOL         5
MINIMUM_STEP         0.5
THREADS              1

[EVAPORATION]
;;Data Source    Parameters
;;-------------- ----------------
CONSTANT         0.0
DRY_ONLY         NO

[RAINGAGES]
;;Name           Format    Interval SCF      Source    
;;-------------- --------- ------ ------ ----------
Design~Storm~H   VOLUME    0.33444  1.0      TIMESERIES RN#0            

[SUBCATCHMENTS]
;;Name           Rain Gage        Outlet           Area     %Imperv  Width    %Slope   CurbLen  SnowPack        
;;-------------- ---------------- ---------------- -------- -------- -------- -------- -------- ----------------
S098-635#1       Design~Storm~H   S098-635         37.75    8.4      408.1    6.17     0                        
S103-027#1       Design~Storm~H   S103-027         17.05    28.2     993.76   3        0                        
S103-037#1       Design~Storm~H   S103-037         27.49    30.5     1694.28  3        0                        
S103-080#1       Design~Storm~H   S103-080         17.07    32       224.14   38       0                        
S103-227#1       Design~Storm~H   S103-227         37.44    33.5     2213     3        0                        
S103-283#1       Design~Storm~H   S103-283         19.03    11.1     1078.04  2        0                        
S103-306#1       Design~Storm~H   S103-306         24.89    9.7      703.96   3        0                        
S103-315#1       Design~Storm~H   S103-315         1.42     9        239.05   6        0                        
S103-447#1       Design~Storm~H   S103-447         23.4     9.2      1083.92  3        0                        
S104-074#1       Design~Storm~H   S104-074         37.88    12.5     1083.01  2        0                        
S104-108#1       Design~Storm~H   S104-108         16.2     7.4      917.88   4        0                        
S104-132#1       Design~Storm~H   S104-132         23.49    7.4      1374.07  4        0                        
S104-858#1       Design~Storm~H   S104-858         20.74    8        273.35   4        0                        
S105-383#1       Design~Storm~H   S105-383         11.13    37.4     661.92   4.56     0                        
S105-489#1       Design~Storm~H   S105-489         21.29    49.5     661.08   2.84     0                        
S105-497#1       Design~Storm~H   S105-497         22.56    77.1     1013.67  4.09     0                        
S123-290#1       Design~Storm~H   S123-290         10.65    14.1     1030.64  3.24     0                        
S124-034#1       Design~Storm~H   S124-034         17.43    32.6     918.27   2.56     0                        
S124-090#1       Design~Storm~H   S124-090         33.41    31.4     1537.96  2        0                        
S124-128#1       Design~Storm~H   S124-128         51.12    22.1     1248.66  3.61     0                        
S124-182#1       Design~Storm~H   S124-182         33.27    10.5     856.98   3.8      0                        
S124-185#1       Design~Storm~H   S124-185         20.75    18.4     854.31   3        0                        
S124-231#1       Design~Storm~H   S124-231         20.11    20.7     1436.7   4        0                        
S124-382#1       Design~Storm~H   S124-382         24.28    31.9     210.63   2.8      0                        
S124-401#1       Design~Storm~H   S124-401         24.89    22.1     750.66   2.15     0                        
S124-463#1       Design~Storm~H   S124-463         10.36    12.4     380.36   2.94     0                        
S123-288#1       Design~Storm~H   S123-288         29.78    15.7     522.94   1.87     0                        
S124-502#1       Design~Storm~H   S124-502         22.82    13.9     692.38   2.96     0                        
S124-517#1       Design~Storm~H   S124-517         46.32    13.6     829.04   3.17     0                        
S124-079#1       Design~Storm~H   S124-079         41.68    31.4     2047.44  3        0                        
S124-880#1       Design~Storm~H   S124-880         19.65    29.7     1164.28  3        0                        
S125-301#1       Design~Storm~H   S125-301         27.14    31.4     1991.12  2        0                        
S103-225#1       Design~Storm~H   S103-225         2.98     8        176.33   3        0                        
S103-821#1       Design~Storm~H   S103-821         8.03     36.7     152.97   2.72     0                        
S104-057#1       Design~Storm~H   S104-057         8.57     6.8      513.59   4        0                        
S104-089#1       Design~Storm~H   S104-089         7.06     12.9     488.11   4        0                        
S104-318#1       Design~Storm~H   S104-318         7.78     9.7      119.16   6.42     0                        
S123-330#1       Design~Storm~H   S123-330         63.54    2.9      2025.8   4        0                        
S123-335#1       Design~Storm~H   S123-335         3.19     10.7     381.98   2.47     0                        
S103-282#1       Design~Storm~H   S103-282         9.57     9.5      510.72   3        0                        
S103-418#1       Design~Storm~H   S103-418         24.82    7.7      1222.66  2        0                        
S103-421#1       Design~Storm~H   S103-421         3.49     14.4     525.67   4        0                        
S103-424#1       Design~Storm~H   S103-424         11.48    8.7      924.35   4        0                        
S103-442#1       Design~Storm~H   S103-442         16.39    10.3     524.41   3        0                        
S103-435#1       Design~Storm~H   S103-435         18.32    5.2      934.71   3        0                        
S103-528#1       Design~Storm~H   S103-528         17.57    8.7      937.41   3        0                        
S103-540#1       Design~Storm~H   S103-540         20.62    8.2      988.12   2        0                        
S104-015#1       Design~Storm~H   S104-015         5.37     7.3      461.09   5        0                        
S104-018#1       Design~Storm~H   S104-018         9.47     7.8      584.22   5        0                        
S104-031#1       Design~Storm~H   S104-031         9.99     11.8     615.69   4        0                        
S104-093#1       Design~Storm~H   S104-093         20.42    14.4     517.48   2        0                        
S104-142#1       Design~Storm~H   S104-142         22.38    9.3      1121.61  3        0                        
S104-158#1       Design~Storm~H   S104-158         6.85     7.9      666.05   4        0                        
S104-306#1       Design~Storm~H   S104-306         18.3     14.6     214.05   5.34     0                        
S104-327#1       Design~Storm~H   S104-327         5.59     15.5     85.47    4.53     0                        
S104-861L#1      Design~Storm~H   S104-861L        42.3     9.4      1007.37  4        0                        
S105-492#1       Design~Storm~H   S105-492         16.37    38.1     977.66   5.49     0                        
S105-495#1       Design~Storm~H   S105-495         42.92    40.9     1294.76  5.65     0                        
S123-278#1       Design~Storm~H   S123-278         6.52     5.8      481.29   5        0                        
S123-296#1       Design~Storm~H   S123-296         5.17     6.8      482.69   6        0                        
S123-324#1       Design~Storm~H   S123-324         25.21    4.3      1021.72  2        0                        
S123-352#1       Design~Storm~H   S123-352         8.92     5.4      947.24   6        0                        
S123-368#1       Design~Storm~H   S123-368         18.51    2.2      1042.86  4        0                        
S124-006#1       Design~Storm~H   S124-006         28.11    33       1657.8   3.3      0                        
S124-144#1       Design~Storm~H   S124-144         45.89    25.6     721.32   2.78     0                        
S124-160#1       Design~Storm~H   S124-160         26.37    31.3     565.65   2.9      0                        
S124-189#1       Design~Storm~H   S124-189         2.62     23.4     395.79   5        0                        
S124-204#1       Design~Storm~H   S124-204         9.84     19.8     253.95   3        0                        
S124-226#1       Design~Storm~H   S124-226         25.43    27.4     987.21   2        0                        
S124-404#1       Design~Storm~H   S124-404         14.4     21.6     811.02   2.7      0                        
S124-840#1       Design~Storm~H   S124-840         6.99     21       429.87   1.36     0                        
S125-436#1       Design~Storm~H   S125-436         30.8     28.1     1223.49  3.41     0                        
S123-331#1       Design~Storm~H   S123-331         23.91    6.6      1707.9   3        0                        
S124-240#1       Design~Storm~H   S124-240         19.57    20.3     1327.02  3        0                        
S124-272#1       Design~Storm~H   S124-272         22.99    21.6     1198.5   3        0                        
S124-868#1       Design~Storm~H   S124-868         4.08     8.7      313.78   3.14     0                        
S105-403#1       Design~Storm~H   S105-403         18.19    10.5     154.01   4.19     0                        
S125-225#1       Design~Storm~H   S125-225         31.41    33       2210.4   3        0                        
S103-813#1       Design~Storm~H   S103-813         18.63    31.6     987.44   3        0                        
S104-134#1       Design~Storm~H   S104-134         10.23    10.7     450.73   4        0                        
S105-500#1       Design~Storm~H   S105-500         12.11    39.7     731.75   4.76     0                        
S105-485#1       Design~Storm~H   S105-485         26.57    44.3     1082.97  1.75     0                        
S105-503#1       Design~Storm~H   S105-503         7.59     40.4     606.94   1.57     0                        
S124-575#1       Design~Storm~H   S124-575         12.28    45.4     342.98   1.77     0                        
S124-568#1       Design~Storm~H   S124-568         31.53    36.6     291.62   3        0                        
S125-346#1       Design~Storm~H   S125-346         25.99    28.6     1508.48  2        0                        
S123-269#1       Design~Storm~H   S123-269         23.91    8.7      627.66   3        0                        
S123-253#1       Design~Storm~H   S123-253         16.78    1.1      1297.98  2        0                        
S123-140#1       Design~Storm~H   S123-140         44.3     16.1     1435.8   2.95     0                        
S123-146#1       Design~Storm~H   S123-146         11.65    12       501.46   5.05     0                        
S124-465#1       Design~Storm~H   S124-465         17.71    11.9     502.68   2.19     0                        
S127-441#1       Design~Storm~H   S127-441         52.35    14.8     1176.54  2.2      0                        
S105-183#1       Design~Storm~H   S105-183         22.31    13.6     712.66   3.13     0                        
S103-075#1       Design~Storm~H   S103-075         15.95    33       283.88   3.3      0                        
S123-349B#1      Design~Storm~H   S123-349B        31.62    4.3      1530.31  3        0                        
S104-017B#1      Design~Storm~H   S104-017B        43.36    4.3      1343.13  3        0                        
S103-080R#1      Design~Storm~H   S103-080R        17.07    32       224.14   2.1      0                        
S104-858R#1      Design~Storm~H   S104-858R        27.65    8        273.35   4        0                        
S103-086Ta#1     Design~Storm~H   S103-086Ta       13.83    8        91.11    4        0                        
S081-063#1       Design~Storm~H   S081-063         3.06     11.4     140.23   5.76     0                        
S081-058#1       Design~Storm~H   S081-058         23.77    10       243.69   5.09     0                        
S080-056#1       Design~Storm~H   S080-056         9.27     18.2     400.37   9.04     0                        
S080-064#1       Design~Storm~H   S080-064         10.8     19.1     412.07   7.58     0                        
S099-541#1       Design~Storm~H   S099-541         7.27     23.8     334.76   4.43     0                        
S099-418#1       Design~Storm~H   S099-418         16.12    15.3     469.54   2.45     0                        
S099-280#1       Design~Storm~H   S099-280         28.64    23.2     577.4    3.16     0                        
S080-069#1       Design~Storm~H   S080-069         15.3     22.6     388.52   3.5      0                        
S099-514#1       Design~Storm~H   S099-514         27.32    21.1     331.36   2.75     0                        
S099-513#1       Design~Storm~H   S099-513         10.04    25.8     421.65   3.29     0                        
S080-164#1       Design~Storm~H   S080-164         13.85    19.4     391.35   4.16     0                        
S080-146#1       Design~Storm~H   S080-146         32.41    21.3     575.75   4.36     0                        
S080-041#1       Design~Storm~H   S080-041         23.53    23.5     525.91   5.5      0                        
S099-345#1       Design~Storm~H   S099-345         32.31    31       423.12   2.36     0                        
S099-351#1       Design~Storm~H   S099-351         21.65    23.2     412      3.32     0                        
S099-399#1       Design~Storm~H   S099-399         46.99    26.2     459.9    2.41     0                        
S099-414#1       Design~Storm~H   S099-414         9.98     16.9     271.92   4.42     0                        
S099-437#1       Design~Storm~H   S099-437         33.41    26.9     650.13   2.77     0                        
S080-074#1       Design~Storm~H   S080-074         2.71     22.7     122.1    6.81     0                        
S080-075#1       Design~Storm~H   S080-075         5.93     20.4     187.83   4.88     0                        
S080-078#1       Design~Storm~H   S080-078         4.2      21.7     356.65   10.21    0                        
S081-105#1       Design~Storm~H   S081-105         35.63    17.6     507.85   6.82     0                        
S081-107#1       Design~Storm~H   S081-107         1.61     24.4     121.14   5.96     0                        
S099-420#1       Design~Storm~H   S099-420         10.47    22.1     281.89   5.01     0                        
S099-826#1       Design~Storm~H   S099-826         5.47     24.3     206.15   5.77     0                        
S080-052#1       Design~Storm~H   S080-052         8.28     23.2     396.31   9.19     0                        
S080-242#1       Design~Storm~H   S080-242         7.64     32.1     177.45   8.28     0                        
S080-285#1       Design~Storm~H   S080-285         3.19     12.4     165.81   8.48     0                        
S099-269#1       Design~Storm~H   S099-269         16.78    24.5     314.91   4.97     0                        
S099-234#1       Design~Storm~H   S099-234         13.58    25.8     483.56   3.15     0                        
S099-140#1       Design~Storm~H   S099-140         9.32     21.9     414.59   2.51     0                        
S099-547#1       Design~Storm~H   S099-547         27.21    23.8     661.26   3.33     0                        
S099-481#1       Design~Storm~H   S099-481         20.76    14.3     353.64   3.2      0                        
S080-105#1       Design~Storm~H   S080-105         21.98    15.4     601.65   3.5      0                        
S099-465#1       Design~Storm~H   S099-465         15.37    20.4     345.5    4.7      0                        
S104-861#1       Design~Storm~H   S104-861         42.3     9.4      1007.37  4        0                        
S104-188A#1      Design~Storm~H   S104-188A        151.04   6.2      2647.37  3        0                        
S123-290R#1      Design~Storm~H   S123-290R        10.64    14.1     1030.64  2.81     0                        
S123-335R#1      Design~Storm~H   S123-335R        3.19     10.7     381.98   2.98     0                        
S100-349#1       Design~Storm~H   S100-349         33.95    13.4     610.18   3.05     0                        
S079-085#1       Design~Storm~H   S079-085         27.42    9.2      442.92   2.28     0                        
S100-686#1       Design~Storm~H   S100-686         81.5     6.4      482      3.52     0                        
S100-563#1       Design~Storm~H   S100-563         26.6     14.3     506.6    4.8      0                        
S100-562#1       Design~Storm~H   S100-562         6.1      19.9     319.6    4.1      0                        
S103-639#1       Design~Storm~H   S103-639         18.1     17       433.6    3.5      0                        
S103-600#1       Design~Storm~H   S103-600         35.28    16.9     928.8    3.2      0                        
S103-486#1       Design~Storm~H   S103-486         17.19    27.1     606.94   3.44     0                        
S103-375#1       Design~Storm~H   S103-375         21.16    19.6     641.48   2.19     0                        
S079-093#1       Design~Storm~H   S079-093         43.3     37.3     200.71   4.53     0                        
S079-005#1       Design~Storm~H   S079-005         45.34    23.7     241.795  4.19     0                        
S100-722#1       Design~Storm~H   S100-722         26.22    20.8     166.545  3.34     0                        
S101-850#1       Design~Storm~H   S101-850         51.9     7.2      309.55   3.8      0                        
S101-268#1       Design~Storm~H   S101-268         45.48    18.1     170.12   2.55     0                        
S100-411#1       Design~Storm~H   S100-411         71.81    14.9     844.24   3.08     0                        
S100-179#1       Design~Storm~H   S100-179         72.55    14.2     1170.54  2.32     0                        
S100-420#1       Design~Storm~H   S100-420         28.24    12.8     526.98   5.16     0                        
S100-462#1       Design~Storm~H   S100-462         87.93    17.4     1106.48  2.39     0                        
S100-290#1       Design~Storm~H   S100-290         45.8     20.9     884.6    1.94     0                        
S100-424#1       Design~Storm~H   S100-424         25.34    16.4     706.46   2.27     0                        
S103-626#1       Design~Storm~H   S103-626         41.81    16.6     501.32   2.84     0                        
S102-549#1       Design~Storm~H   S102-549         27.26    17       757.18   2.67     0                        
S102-537#1       Design~Storm~H   S102-537         22.55    16.2     451.36   2.9      0                        
S102-511#1       Design~Storm~H   S102-511         49.98    15.8     1059.26  2.36     0                        
S100-625#1       Design~Storm~H   S100-625         19.54    15.4     588.12   6.71     0                        
S100-025#1       Design~Storm~H   S100-025         46.52    16.2     963.9    3.28     0                        
S100-201#1       Design~Storm~H   S100-201         3.03     14.4     124.64   4.65     0                        
S100-204#1       Design~Storm~H   S100-204         47.92    16.9     1003.42  3.44     0                        
s100-687#1       Design~Storm~H   s100-687         13.55    20.5     401.92   3.87     0                        
S101-319#1       Design~Storm~H   S101-319         19.13    16.4     482.18   2.39     0                        
S102-193#1       Design~Storm~H   S102-193         4.33     14.6     198.94   2.66     0                        
S102-199#1       Design~Storm~H   S102-199         20.61    14.2     665.94   2.08     0                        
S102-223#1       Design~Storm~H   S102-223         4.53     16.4     175.14   3.91     0                        
S102-236#1       Design~Storm~H   S102-236         26.89    15.4     687.42   2.49     0                        
s102-319#1       Design~Storm~H   s102-319         12.92    16.1     513.82   2.35     0                        
S102-405#1       Design~Storm~H   S102-405         8.21     17       412.52   1.39     0                        
S102-434#1       Design~Storm~H   S102-434         22.1     16.5     483.52   1.85     0                        
S102-557#1       Design~Storm~H   S102-557         6.49     16       374      2.9      0                        
S103-151#1       Design~Storm~H   S103-151         27.26    18.2     588.38   1.74     0                        
S103-360#1       Design~Storm~H   S103-360         13.14    26       574.58   2.92     0                        
S103-393#1       Design~Storm~H   S103-393         10.04    24.6     360.12   3.19     0                        
S100-131#1       Design~Storm~H   S100-131         21.58    17.5     553.94   2.38     0                        
S100-219#1       Design~Storm~H   S100-219         47.1     16.8     923.12   2.93     0                        
S100-622#1       Design~Storm~H   S100-622         3.6      15.6     175.88   5.21     0                        
S079-082#1       Design~Storm~H   S079-082         25.52    6.3      262.21   7.46     0                        
S101-269#1       Design~Storm~H   S101-269         31.62    6        218.655  2.7      0                        
S081-416#1       Design~Storm~H   S081-416         26.05    9.4      388.51   4.63     0                        
S081-500#1       Design~Storm~H   S081-500         21.69    18.4     359.15   5.17     0                        
S074-057#1       Design~Storm~H   S074-057         11.53    41.3     157.12   4.01     0                        
S074-051#1       Design~Storm~H   S074-051         36.84    21.4     344.25   3.19     0                        
S081-272#1       Design~Storm~H   S081-272         27.1     18.5     292.74   5.71     0                        
S080-601#1       Design~Storm~H   S080-601         21.53    12.2     159.96   3.87     0                        
S075-036#1       Design~Storm~H   S075-036         14.06    6.6      208.3    3.7      0                        
S075-062#1       Design~Storm~H   S075-062         13.82    7.3      200.88   5.03     0                        
S075-166#1       Design~Storm~H   S075-166         68.7     11.2     581.56   4.9      0                        
S075-168#1       Design~Storm~H   S075-168         22.11    14.8     307.07   4.43     0                        
S075-277#1       Design~Storm~H   S075-277         15.6     13.3     118.2    2.3      0                        
S075-286#1       Design~Storm~H   S075-286         16.25    10.1     123.05   2.34     0                        
S075-395#1       Design~Storm~H   S075-395         58.55    10.3     414.78   2.56     0                        
S056-021#1       Design~Storm~H   S056-021         64.17    7.7      441.16   2.17     0                        
S074-305#1       Design~Storm~H   S074-305         28.41    11.8     210.59   4.9      0                        
S074-301#1       Design~Storm~H   S074-301         16.91    8.6      256.12   2.16     0                        
S074-429#1       Design~Storm~H   S074-429         24.26    7.8      233.96   3.38     0                        
S074-435#1       Design~Storm~H   S074-435         23.15    7.8      273.7    3.56     0                        
S074-294#1       Design~Storm~H   S074-294         15.52    8.5      217.31   2.86     0                        
S074-329#1       Design~Storm~H   S074-329         15.18    8.9      255.93   2.54     0                        
S075-303#1       Design~Storm~H   S075-303         37.3     10.2     335.93   2.84     0                        
S075-090#1       Design~Storm~H   S075-090         10.05    10.2     310.28   4.49     0                        
S075-906#1       Design~Storm~H   S075-906         14.68    8.6      489.22   3.47     0                        
S075-250#1       Design~Storm~H   S075-250         9.06     11.3     270.22   3.73     0                        
S075-369#1       Design~Storm~H   S075-369         66.55    13.8     1286.16  3.43     0                        
S075-210#1       Design~Storm~H   S075-210         12.23    17.9     273.74   4.2      0                        
S075-214#1       Design~Storm~H   S075-214         21.67    16.9     604.64   4.85     0                        
S075-239#1       Design~Storm~H   S075-239         34.64    17.3     768.42   3.8      0                        
S075-206#1       Design~Storm~H   S075-206         43.52    18       959.7    3.33     0                        
S076-209#1       Design~Storm~H   S076-209         22.82    21.2     244.91   3.79     0                        
S076-289#1       Design~Storm~H   S076-289         23.41    16.2     262.55   3.25     0                        
S076-417#1       Design~Storm~H   S076-417         25.49    26.6     277.11   2.3      0                        
S055-027#1       Design~Storm~H   S055-027         32.87    30       327.23   3.21     0                        
S055-066#1       Design~Storm~H   S055-066         17.24    33.5     255.62   2.11     0                        
S055-116#1       Design~Storm~H   S055-116         6.37     42.4     90.71    2.41     0                        
S055-117#1       Design~Storm~H   S055-117         18.33    26.2     200.66   1.99     0                        
S055-158#1       Design~Storm~H   S055-158         28.28    17.9     378.94   3.38     0                        
S055-160#1       Design~Storm~H   S055-160         16.57    28.1     256.88   2.27     0                        
S076-998#1       Design~Storm~H   S076-998         56.29    17.3     463.2    3.35     0                        
S076-308#1       Design~Storm~H   S076-308         20       18.9     182.11   3.32     0                        
S076-323#1       Design~Storm~H   S076-323         49.91    15.6     354.79   2.94     0                        
S076-835#1       Design~Storm~H   S076-835         27.3     18.3     203.75   1.47     0                        
S056-037#1       Design~Storm~H   S056-037         68.14    12.8     517.08   2.16     0                        
S056-002#1       Design~Storm~H   S056-002         9.2      17.4     158.9    3.03     0                        
S055-113A#1      Design~Storm~H   S055-113A        12.01    47.7     217.54   2.06     0                        
S055-113E#1      Design~Storm~H   S055-113E        27.87    26.3     412.58   2.54     0                        
S055-113G#1      Design~Storm~H   S055-113G        8.84     51.9     175.1    1.56     0                        
S079-305#1       Design~Storm~H   S079-305         26.31    21.2     323.99   3.89     0                        
S076-064#1       Design~Storm~H   S076-064         22.54    21       695.08   3.45     0                        
S076-163#1       Design~Storm~H   S076-163         17.35    20.8     915.96   3.55     0                        
S076-291#1       Design~Storm~H   S076-291         19.4     20.2     1279.96  3.76     0                        
S076-287#1       Design~Storm~H   S076-287         19.1     28.7     677.04   3.51     0                        
S076-408#1       Design~Storm~H   S076-408         35.17    41.9     1393.04  2.05     0                        
S076-400#1       Design~Storm~H   S076-400         25.38    34.5     1690.6   2.76     0                        
S076-385#1       Design~Storm~H   S076-385         28.62    43.4     1205.16  2.68     0                        
S076-474#1       Design~Storm~H   S076-474         14.73    57       1007.76  1.85     0                        
S076-353#1       Design~Storm~H   S076-353         10.07    32.8     455.88   3.46     0                        
S076-405#1       Design~Storm~H   S076-405         14.92    56.1     543.24   2.37     0                        
S076-398#1       Design~Storm~H   S076-398         43.71    30.8     1523.84  2.41     0                        
S079-193#1       Design~Storm~H   S079-193         65.62    24.4     376.16   3.03     0                        
S079-388#1       Design~Storm~H   S079-388         31.4     14       414.21   3.44     0                        
S079-425#1       Design~Storm~H   S079-425         17.16    12.6     139.9    1.3      0                        
S076-071#1       Design~Storm~H   S076-071         39.89    15.4     272.99   3.8      0                        
S076-070#1       Design~Storm~H   S076-070         13.12    12.1     194.27   4.47     0                        
S076-106#1       Design~Storm~H   S076-106         16.3     14.2     220.18   3.52     0                        
S076-171#1       Design~Storm~H   S076-171         20.83    17       234.98   2.89     0                        
S078-354#1       Design~Storm~H   S078-354         9.88     10.4     113.265  3.41     0                        
S078-369#1       Design~Storm~H   S078-369         30.44    8.7      166.655  5.35     0                        