[TITLE]
;;Project Title/Notes

[OPTIONS]
;;Option             Value
FLOW_UNITS           MGD
INFILTRATION         HORTON
FLOW_ROUTING         DYNWAVE
LINK_OFFSETS         DEPTH
MIN_SLOPE            0
ALLOW_PONDING        NO
SKIP_STEADY_STATE    NO

IGNORE_QUALITY       YES
START_DATE           02/17/2005
START_TIME           00:00:00
REPORT_START_DATE    02/17/2005
REPORT_START_TIME    00:00:00
END_DATE             02/19/2005
END_TIME             00:00:00
SWEEP_START          01/01
SWEEP_END            12/31
DRY_DAYS             5.000000
REPORT_STEP          00:15:00
WET_STEP             00:15:00
DRY_STEP             00:15:00
ROUTING_STEP         0:00:10 

INERTIAL_DAMPING     NONE
NORMAL_FLOW_LIMITED  BOTH
FORCE_MAIN_EQUATION  H-W
VARIABLE_STEP        0.76
LENGTHENING_STEP     10
MIN_SURFAREA         12.557
MAX_TRIALS           8
HEAD_TOLERANCE       0.005000
SYS_FLOW_TOL         5
LAT_FLOW_TOL         5
MINIMUM_STEP         00
THREADS              1

[EVAPORATION]
;;Data Source    Parameters
;;-------------- ----------------
CONSTANT         1000.000000
DRY_ONLY         NO

[RAINGAGES]
;;Name           Format    Interval SCF      Source    
;;-------------- --------- ------ ------ ----------
1214             INTENSITY 0.250000 1.000000 TIMESERIES RG03            
1255             INTENSITY 0.250000 1.000000 TIMESERIES RG03            
1256             INTENSITY 0.250000 1.000000 TIMESERIES RG03            
1257             INTENSITY 0.250000 1.000000 TIMESERIES RG03            
1258             INTENSITY 0.250000 1.000000 TIMESERIES RG03            
1259             INTENSITY 0.250000 1.000000 TIMESERIES RG03            
1260             INTENSITY 0.250000 1.000000 TIMESERIES RG03            
1261             INTENSITY 0.250000 1.000000 TIMESERIES RG03            
1262             INTENSITY 0.250000 1.000000 TIMESERIES RG03            
1263             INTENSITY 0.250000 1.000000 TIMESERIES RG03            
1264             INTENSITY 0.250000 1.000000 TIMESERIES RG03            
1298             INTENSITY 0.250000 1.000000 TIMESERIES RG03            
1299             INTENSITY 0.250000 1.000000 TIMESERIES RG03            
1300             INTENSITY 0.250000 1.000000 TIMESERIES RG03            
1301             INTENSITY 0.250000 1.000000 TIMESERIES RG03            
1302             INTENSITY 0.250000 1.000000 TIMESERIES RG03            
1303             INTENSITY 0.250000 1.000000 TIMESERIES RG03            
1304             INTENSITY 0.250000 1.000000 TIMESERIES RG03            
1305             INTENSITY 0.250000 1.000000 TIMESERIES RG03            
1306             INTENSITY 0.250000 1.000000 TIMESERIES RG03            
1307             INTENSITY 0.250000 1.000000 TIMESERIES RG03            
1343             INTENSITY 0.250000 1.000000 TIMESERIES RG03            
1344             INTENSITY 0.250000 1.000000 TIMESERIES RG03            
1345             INTENSITY 0.250000 1.000000 TIMESERIES RG03            
1346             INTENSITY 0.250000 1.000000 TIMESERIES RG03            
1347             INTENSITY 0.250000 1.000000 TIMESERIES RG03            
1348             INTENSITY 0.250000 1.000000 TIMESERIES RG03            
1349             INTENSITY 0.250000 1.000000 TIMESERIES RG03            
1350             INTENSITY 0.250000 1.000000 TIMESERIES RG03            
1387             INTENSITY 0.250000 1.000000 TIMESERIES RG03            
1388             INTENSITY 0.250000 1.000000 TIMESERIES RG03            
1389             INTENSITY 0.250000 1.000000 TIMESERIES RG03            
1390             INTENSITY 0.250000 1.000000 TIMESERIES RG03            
1391             INTENSITY 0.250000 1.000000 TIMESERIES RG03            
1392             INTENSITY 0.250000 1.000000 TIMESERIES RG03            
1393             INTENSITY 0.250000 1.000000 TIMESERIES RG03            
1430             INTENSITY 0.250000 1.000000 TIMESERIES RG03            
1431             INTENSITY 0.250000 1.000000 TIMESERIES RG03            
1432             INTENSITY 0.250000 1.000000 TIMESERIES RG03            
1433             INTENSITY 0.250000 1.000000 TIMESERIES RG03            
1434             INTENSITY 0.250000 1.000000 TIMESERIES RG03            
1435             INTENSITY 0.250000 1.000000 TIMESERIES RG03            
1436             INTENSITY 0.250000 1.000000 TIMESERIES RG03            
1473             INTENSITY 0.250000 1.000000 TIMESERIES RG03            
1474             INTENSITY 0.250000 1.000000 TIMESERIES RG03            
1475             INTENSITY 0.250000 1.000000 TIMESERIES RG03            
1476             INTENSITY 0.250000 1.000000 TIMESERIES RG03            
1477             INTENSITY 0.250000 1.000000 TIMESERIES RG03            
1478             INTENSITY 0.250000 1.000000 TIMESERIES RG03            
1479             INTENSITY 0.250000 1.000000 TIMESERIES RG03            
; Dummy
RAINGAGE-1       INTENSITY 0.250000 1.000000 TIMESERIES RG03            
; ADS Raingauge
RG03             INTENSITY 0.250000 1.000000 TIMESERIES RG03            

[SUBCATCHMENTS]
;;Name           Rain Gage        Outlet           Area     %Imperv  Width    %Slope   CurbLen  SnowPack        
;;-------------- ---------------- ---------------- -------- -------- -------- -------- -------- ----------------
FULL_001         RAINGAGE-1       46-86            0.001000 0.000000 500.000000 0.500000 0.000000                 
FULL_002         RAINGAGE-1       90-86            0.001000 0.000000 500.000000 0.500000 0.000000                 
FULL_003         RAINGAGE-1       77-86            0.001000 0.000000 500.000000 0.500000 0.000000                 
FULL_004         RAINGAGE-1       NHP0660-0230     0.001000 0.000000 500.000000 0.500000 0.000000                 
FULL_005         RAINGAGE-1       NHP0660-0210     0.001000 0.000000 500.000000 0.500000 0.000000                 
FULL_006         RAINGAGE-1       NHP0660-0220     0.001000 0.000000 500.000000 0.500000 0.000000                 
FULL_007         RAINGAGE-1       18-102           0.001000 0.000000 500.000000 0.500000 0.000000                 
FULL_008         RAINGAGE-1       NHP0660-0275     0.001000 0.000000 500.000000 0.500000 0.000000                 
FULL_009         RAINGAGE-1       20-101           0.001000 0.000000 500.000000 0.500000 0.000000                 
FULL_010         RAINGAGE-1       9-100            0.001000 0.000000 500.000000 0.500000 0.000000                 
FULL_011         RAINGAGE-1       26-100           0.001000 0.000000 500.000000 0.500000 0.000000                 
FULL_012         RAINGAGE-1       EUB0880-0045     0.001000 0.000000 500.000000 0.500000 0.000000                 
FULL_013         RAINGAGE-1       51-98            0.001000 0.000000 500.000000 0.500000 0.000000                 
FULL_014         RAINGAGE-1       43-99            0.001000 0.000000 500.000000 0.500000 0.000000                 
FULL_015         RAINGAGE-1       47-98            0.001000 0.000000 500.000000 0.500000 0.000000                 
FULL_016         RAINGAGE-1       8-97             0.001000 0.000000 500.000000 0.500000 0.000000                 
FULL_017         RAINGAGE-1       61-95            0.001000 0.000000 500.000000 0.500000 0.000000                 
FULL_018         RAINGAGE-1       KNT1005-0000     0.001000 0.000000 500.000000 0.500000 0.000000                 
FULL_019         RAINGAGE-1       KNT1000-0000     0.001000 0.000000 500.000000 0.500000 0.000000                 
FULL_020         RAINGAGE-1       KNT0985-0000     0.001000 0.000000 500.000000 0.500000 0.000000                 
FULL_021         RAINGAGE-1       KNT0975-0020     0.001000 0.000000 500.000000 0.500000 0.000000                 
FULL_022         RAINGAGE-1       KNT0966-0000     0.001000 0.000000 500.000000 0.500000 0.000000                 
FULL_023         RAINGAGE-1       21-97            0.001000 0.000000 500.000000 0.500000 0.000000                 
FULL_024         RAINGAGE-1       4-97             0.001000 0.000000 500.000000 0.500000 0.000000                 
FULL_025         RAINGAGE-1       59-95            0.001000 0.000000 500.000000 0.500000 0.000000                 
FULL_026         RAINGAGE-1       KNT0945-0000     0.001000 0.000000 500.000000 0.500000 0.000000                 
FULL_027         RAINGAGE-1       78-95            0.001000 0.000000 500.000000 0.500000 0.000000                 
FULL_028         RAINGAGE-1       42-95            0.001000 0.000000 500.000000 0.500000 0.000000                 
FULL_029         RAINGAGE-1       20-74            0.001000 0.000000 500.000000 0.500000 0.000000                 
FULL_030         RAINGAGE-1       48-74            0.001000 0.000000 500.000000 0.500000 0.000000                 
FULL_031         RAINGAGE-1       55-72            0.001000 0.000000 500.000000 0.500000 0.000000                 
FULL_032         RAINGAGE-1       37-71            0.001000 0.000000 500.000000 0.500000 0.000000                 
FULL_033         RAINGAGE-1       63-71            0.001000 0.000000 500.000000 0.500000 0.000000                 
FULL_034         RAINGAGE-1       2-74             0.001000 0.000000 500.000000 0.500000 0.000000                 
FULL_035         RAINGAGE-1       14-74            0.001000 0.000000 500.000000 0.500000 0.000000                 
FULL_036         RAINGAGE-1       4-73             0.001000 0.000000 500.000000 0.500000 0.000000                 
FULL_037         RAINGAGE-1       51-74            0.001000 0.000000 500.000000 0.500000 0.000000                 
FULL_038         RAINGAGE-1       40-71            0.001000 0.000000 500.000000 0.500000 0.000000                 
FULL_039         RAINGAGE-1       31-73            0.001000 0.000000 500.000000 0.500000 0.000000                 
FULL_040         RAINGAGE-1       1-47             0.001000 0.000000 500.000000 0.500000 0.000000                 
FULL_041         RAINGAGE-1       EUB0735-0060     0.001000 0.000000 500.000000 0.500000 0.000000                 
FULL_042         RAINGAGE-1       61-47            0.001000 0.000000 500.000000 0.500000 0.000000                 
FULL_043         RAINGAGE-1       41-45            0.001000 0.000000 500.000000 0.500000 0.000000                 
FULL_044         RAINGAGE-1       70-69            0.001000 0.000000 500.000000 0.500000 0.000000                 
FULL_045         RAINGAGE-1       10-45            0.001000 0.000000 500.000000 0.500000 0.000000                 
FULL_046         RAINGAGE-1       50-45            0.001000 0.000000 500.000000 0.500000 0.000000                 
FULL_047         RAINGAGE-1       22-91            0.001000 0.000000 500.000000 0.500000 0.000000                 
FULL_048         RAINGAGE-1       13-93            0.001000 0.000000 500.000000 0.500000 0.000000                 
FULL_049         RAINGAGE-1       47-93            0.001000 0.000000 500.000000 0.500000 0.000000                 
FULL_050         RAINGAGE-1       3-69             0.001000 0.000000 500.000000 0.500000 0.000000                 
FULL_051         RAINGAGE-1       2-69             0.001000 0.000000 500.000000 0.500000 0.000000                 
FULL_052         RAINGAGE-1       10-69            0.001000 0.000000 500.000000 0.500000 0.000000                 
FULL_053         RAINGAGE-1       46-69            0.001000 0.000000 500.000000 0.500000 0.000000                 
FULL_054         RAINGAGE-1       30-69            0.001000 0.000000 500.000000 0.500000 0.000000                 
FULL_055         RAINGAGE-1       32-69            0.001000 0.000000 500.000000 0.500000 0.000000                 
FULL_056         RAINGAGE-1       55-69            0.001000 0.000000 500.000000 0.500000 0.000000                 
FULL_057         RAINGAGE-1       48-69            0.001000 0.000000 500.000000 0.500000 0.000000                 
FULL_058         RAINGAGE-1       102-46           0.001000 0.000000 500.000000 0.500000 0.000000                 
FULL_059         RAINGAGE-1       66-68            0.001000 0.000000 500.000000 0.500000 0.000000                 
FULL_060         RAINGAGE-1       60-66            0.001000 0.000000 500.000000 0.500000 0.000000                 
FULL_061         RAINGAGE-1       KNT0740-0010     0.001000 0.000000 500.000000 0.500000 0.000000                 
FULL_062         RAINGAGE-1       KNT0740-0005     0.001000 0.000000 500.000000 0.500000 0.000000                 
FULL_063         RAINGAGE-1       KNT0620-0075     0.001000 0.000000 500.000000 0.500000 0.000000                 
FULL_064         RAINGAGE-1       25-63            0.001000 0.000000 500.000000 0.500000 0.000000                 
FULL_065         RAINGAGE-1       129-65           0.001000 0.000000 500.000000 0.500000 0.000000                 
FULL_066         RAINGAGE-1       35-37            0.001000 0.000000 500.000000 0.500000 0.000000                 
FULL_067         RAINGAGE-1       13-37            0.001000 0.000000 500.000000 0.500000 0.000000                 
FULL_068         RAINGAGE-1       72-37            0.001000 0.000000 500.000000 0.500000 0.000000                 
FULL_069         RAINGAGE-1       36-38            0.001000 0.000000 500.000000 0.500000 0.000000                 
FULL_070         RAINGAGE-1       28-38            0.001000 0.000000 500.000000 0.500000 0.000000                 
FULL_071         RAINGAGE-1       8-40             0.001000 0.000000 500.000000 0.500000 0.000000                 
FULL_072         RAINGAGE-1       11-39            0.001000 0.000000 500.000000 0.500000 0.000000                 
FULL_073         RAINGAGE-1       77-66            0.001000 0.000000 500.000000 0.500000 0.000000                 
FULL_074         RAINGAGE-1       32-67            0.001000 0.000000 500.000000 0.500000 0.000000                 
FULL_075         RAINGAGE-1       2-41             0.001000 0.000000 500.000000 0.500000 0.000000                 
FULL_076         RAINGAGE-1       62-67            0.001000 0.000000 500.000000 0.500000 0.000000                 
FULL_077         RAINGAGE-1       69-65            0.001000 0.000000 500.000000 0.500000 0.000000                 
FULL_078         RAINGAGE-1       135-65           0.001000 0.000000 500.000000 0.500000 0.000000                 
FULL_079         RAINGAGE-1       34-41            0.001000 0.000000 500.000000 0.500000 0.000000                 
FULL_080         RAINGAGE-1       85-39            0.001000 0.000000 500.000000 0.500000 0.000000                 
FULL_081         RAINGAGE-1       87-39            0.001000 0.000000 500.000000 0.500000 0.000000                 
FULL_082         RAINGAGE-1       43-40B           0.001000 0.000000 500.000000 0.500000 0.000000                 
FULL_083         RAINGAGE-1       25-43            0.001000 0.000000 500.000000 0.500000 0.000000                 
FULL_084         RAINGAGE-1       41-43            0.001000 0.000000 500.000000 0.500000 0.000000                 
FULL_085         RAINGAGE-1       12-41            0.001000 0.000000 500.000000 0.500000 0.000000                 
FULL_086         RAINGAGE-1       93-42            0.001000 0.000000 500.000000 0.500000 0.000000                 
FULL_087         RAINGAGE-1       98-42            0.001000 0.000000 500.000000 0.500000 0.000000                 
FULL_088         RAINGAGE-1       10-42            0.001000 0.000000 500.000000 0.500000 0.000000                 
FULL_089         RAINGAGE-1       29-42            0.001000 0.000000 500.000000 0.500000 0.000000                 
FULL_090         RAINGAGE-1       86-38            0.001000 0.000000 500.000000 0.500000 0.000000                 
FULL_091         RAINGAGE-1       1-13             0.001000 0.000000 500.000000 0.500000 0.000000                 
FULL_092         RAINGAGE-1       36-44            0.001000 0.000000 500.000000 0.500000 0.000000                 
FULL_093         RAINGAGE-1       92-44            0.001000 0.000000 500.000000 0.500000 0.000000                 
FULL_094         RAINGAGE-1       68-42            0.001000 0.000000 500.000000 0.500000 0.000000                 
FULL_095         RAINGAGE-1       67-44            0.001000 0.000000 500.000000 0.500000 0.000000                 
FULL_096         RAINGAGE-1       65-44            0.001000 0.000000 500.000000 0.500000 0.000000                 
FULL_097         RAINGAGE-1       13-17            0.001000 0.000000 500.000000 0.500000 0.000000                 
FULL_098         RAINGAGE-1       31-40            0.001000 0.000000 500.000000 0.500000 0.000000                 
FULL_099         RAINGAGE-1       KNT0510-0090     0.001000 0.000000 500.000000 0.500000 0.000000                 
FULL_100         RAINGAGE-1       BUS0505-0000     0.001000 0.000000 500.000000 0.500000 0.000000                 
FULL_101         RAINGAGE-1       BUS0535-0000     0.001000 0.000000 500.000000 0.500000 0.000000                 
FULL_102         RAINGAGE-1       30-1             0.001000 0.000000 500.000000 0.500000 0.000000                 
FULL_103         RAINGAGE-1       34-2             0.001000 0.000000 500.000000 0.500000 0.000000                 
FULL_104         RAINGAGE-1       72-14            0.001000 0.000000 500.000000 0.500000 0.000000                 
FULL_105         RAINGAGE-1       44-14            0.001000 0.000000 500.000000 0.500000 0.000000                 
FULL_106         RAINGAGE-1       31-14            0.001000 0.000000 500.000000 0.500000 0.000000                 
FULL_107         RAINGAGE-1       21-14            0.001000 0.000000 500.000000 0.500000 0.000000                 
FULL_108         RAINGAGE-1       14-14            0.001000 0.000000 500.000000 0.500000 0.000000                 
FULL_109         RAINGAGE-1       65-13            0.001000 0.000000 500.000000 0.500000 0.000000                 
FULL_110         RAINGAGE-1       MLR0580-0075     0.001000 0.000000 500.000000 0.500000 0.000000                 
FULL_111         RAINGAGE-1       60-15            0.001000 0.000000 500.000000 0.500000 0.000000                 
FULL_112         RAINGAGE-1       61-15            0.001000 0.000000 500.000000 0.500000 0.000000                 
FULL_113         RAINGAGE-1       95-13            0.001000 0.000000 500.000000 0.500000 0.000000                 
FULL_114         RAINGAGE-1       13-13            0.001000 0.000000 500.000000 0.500000 0.000000                 
FULL_115         RAINGAGE-1       28-13            0.001000 0.000000 500.000000 0.500000 0.000000                 
FULL_116         RAINGAGE-1       40-13            0.001000 0.000000 500.000000 0.500000 0.000000                 
FULL_117         RAINGAGE-1       44-13            0.001000 0.000000 500.000000 0.500000 0.000000                 
FULL_118         RAINGAGE-1       25-13            0.001000 0.000000 500.000000 0.500000 0.000000                 
FULL_119         RAINGAGE-1       15-15            0.001000 0.000000 500.000000 0.500000 0.000000                 
FULL_120         RAINGAGE-1       20-17            0.001000 0.000000 500.000000 0.500000 0.000000                 
FULL_121         RAINGAGE-1       67-17            0.001000 0.000000 500.000000 0.500000 0.000000                 
FULL_122         RAINGAGE-1       61-17            0.001000 0.000000 500.000000 0.500000 0.000000                 
FULL_123         RAINGAGE-1       32-16            0.001000 0.000000 500.000000 0.500000 0.000000                 
FULL_124         RAINGAGE-1       71-16            0.001000 0.000000 500.000000 0.500000 0.000000                 
FULL_125         RAINGAGE-1       BUS0575-0000     0.001000 0.000000 500.000000 0.500000 0.000000                 
FULL_126         RAINGAGE-1       BUS0510-0030     0.001000 0.000000 500.000000 0.500000 0.000000                 
FULL_127         RAINGAGE-1       29-3             0.001000 0.000000 500.000000 0.500000 0.000000                 
FULL_128         RAINGAGE-1       26-3             0.001000 0.000000 500.000000 0.500000 0.000000                 
FULL_129         RAINGAGE-1       41-3             0.001000 0.000000 500.000000 0.500000 0.000000                 
FULL_130         RAINGAGE-1       39-2             0.001000 0.000000 500.000000 0.500000 0.000000                 
FULL_131         RAINGAGE-1       12-3             0.001000 0.000000 500.000000 0.500000 0.000000                 
FULL_132         RAINGAGE-1       58-20            0.001000 0.000000 500.000000 0.500000 0.000000                 
FULL_133         RAINGAGE-1       29-20            0.001000 0.000000 500.000000 0.500000 0.000000                 
FULL_134         RAINGAGE-1       3-18             0.001000 0.000000 500.000000 0.500000 0.000000                 
FULL_135         RAINGAGE-1       1-18             0.001000 0.000000 500.000000 0.500000 0.000000                 
FULL_136         RAINGAGE-1       3-20             0.001000 0.000000 500.000000 0.500000 0.000000                 
FULL_137         RAINGAGE-1       8-22             0.001000 0.000000 500.000000 0.500000 0.000000                 
FULL_138         RAINGAGE-1       68-17            0.001000 0.000000 500.000000 0.500000 0.000000                 
FULL_139         RAINGAGE-1       53-19            0.001000 0.000000 500.000000 0.500000 0.000000                 
FULL_140         RAINGAGE-1       75-17            0.001000 0.000000 500.000000 0.500000 0.000000                 
FULL_141         RAINGAGE-1       43-17            0.001000 0.000000 500.000000 0.500000 0.000000                 
FULL_142         RAINGAGE-1       11-17            0.001000 0.000000 500.000000 0.500000 0.000000                 
FULL_143         RAINGAGE-1       11-19            0.001000 0.000000 500.000000 0.500000 0.000000                 
FULL_144         RAINGAGE-1       43-21            0.001000 0.000000 500.000000 0.500000 0.000000                 
FULL_145         RAINGAGE-1       46-21            0.001000 0.000000 500.000000 0.500000 0.000000                 
FULL_146         RAINGAGE-1       94-46            0.001000 0.000000 500.000000 0.500000 0.000000                 
FULL_147         RAINGAGE-1       111-46           0.001000 0.000000 500.000000 0.500000 0.000000                 
FULL_148         RAINGAGE-1       33-46            0.001000 0.000000 500.000000 0.500000 0.000000                 
FULL_149         RAINGAGE-1       42-48            0.001000 0.000000 500.000000 0.500000 0.000000                 
FULL_150         RAINGAGE-1       54-48            0.001000 0.000000 500.000000 0.500000 0.000000                 
FULL_151         RAINGAGE-1       BUS0635-0000     0.001000 0.000000 500.000000 0.500000 0.000000                 
FULL_152         RAINGAGE-1       53-22            0.001000 0.000000 500.000000 0.500000 0.000000                 
FULL_153         RAINGAGE-1       EUB0625-0010     0.001000 0.000000 500.000000 0.500000 0.000000                 
FULL_154         RAINGAGE-1       53-5             0.001000 0.000000 500.000000 0.500000 0.000000                 
FULL_155         RAINGAGE-1       57-5             0.001000 0.000000 500.000000 0.500000 0.000000                 
FULL_156         RAINGAGE-1       83-25            0.001000 0.000000 500.000000 0.500000 0.000000                 
FULL_157         RAINGAGE-1       34-5             0.001000 0.000000 500.000000 0.500000 0.000000                 
FULL_158         RAINGAGE-1       32-5             0.001000 0.000000 500.000000 0.500000 0.000000                 
FULL_159         RAINGAGE-1       EUB0600-0055     0.001000 0.000000 500.000000 0.500000 0.000000                 
FULL_160         RAINGAGE-1       62-46            0.001000 0.000000 500.000000 0.500000 0.000000                 
FULL_161         RAINGAGE-1       29-21            0.001000 0.000000 500.000000 0.500000 0.000000                 
FULL_162         RAINGAGE-1       EUB0670-0000     0.001000 0.000000 500.000000 0.500000 0.000000                 
FULL_163         RAINGAGE-1       100-46           0.001000 0.000000 500.000000 0.500000 0.000000                 
FULL_164         RAINGAGE-1       46-23            0.001000 0.000000 500.000000 0.500000 0.000000                 
FULL_165         RAINGAGE-1       EUB0640-0030     0.001000 0.000000 500.000000 0.500000 0.000000                 
FULL_166         RAINGAGE-1       43-24            0.001000 0.000000 500.000000 0.500000 0.000000                 
FULL_167         RAINGAGE-1       64-23            0.001000 0.000000 500.000000 0.500000 0.000000                 
FULL_168         RAINGAGE-1       48-25            0.001000 0.000000 500.000000 0.500000 0.000000                 
FULL_170         RAINGAGE-1       36-32            0.001000 0.000000 500.000000 0.500000 0.000000                 
FULL_171         RAINGAGE-1       32-28            0.001000 0.000000 500.000000 0.500000 0.000000                 
FULL_172         RAINGAGE-1       54-26            0.001000 0.000000 500.000000 0.500000 0.000000                 
FULL_173         RAINGAGE-1       70-23            0.001000 0.000000 500.000000 0.500000 0.000000                 
FULL_174         RAINGAGE-1       51-26            0.001000 0.000000 500.000000 0.500000 0.000000                 
FULL_175         RAINGAGE-1       17-26            0.001000 0.000000 500.000000 0.500000 0.000000                 
FULL_176         RAINGAGE-1       55-25            0.001000 0.000000 500.000000 0.500000 0.000000                 
FULL_177         RAINGAGE-1       3-25             0.001000 0.000000 500.000000 0.500000 0.000000                 
FULL_178         RAINGAGE-1       49-23            0.001000 0.000000 500.000000 0.500000 0.000000                 
FULL_179         RAINGAGE-1       1-50             0.001000 0.000000 500.000000 0.500000 0.000000                 
FULL_180         RAINGAGE-1       106-49           0.001000 0.000000 500.000000 0.500000 0.000000                 
FULL_181         RAINGAGE-1       27-52            0.001000 0.000000 500.000000 0.500000 0.000000                 
FULL_182         RAINGAGE-1       106-51           0.001000 0.000000 500.000000 0.500000 0.000000                 
FULL_183         RAINGAGE-1       EUB0735-0090     0.001000 0.000000 500.000000 0.500000 0.000000                 
FULL_184         RAINGAGE-1       37-49            0.001000 0.000000 500.000000 0.500000 0.000000                 
FULL_185         RAINGAGE-1       23-49            0.001000 0.000000 500.000000 0.500000 0.000000                 
FULL_186         RAINGAGE-1       14-49            0.001000 0.000000 500.000000 0.500000 0.000000                 
FULL_187         RAINGAGE-1       13-49            0.001000 0.000000 500.000000 0.500000 0.000000                 
FULL_188         RAINGAGE-1       EUB0735-0130     0.001000 0.000000 500.000000 0.500000 0.000000                 
FULL_189         RAINGAGE-1       45-75            0.001000 0.000000 500.000000 0.500000 0.000000                 
FULL_190         RAINGAGE-1       26-77            0.001000 0.000000 500.000000 0.500000 0.000000                 
FULL_191         RAINGAGE-1       42-53            0.001000 0.000000 500.000000 0.500000 0.000000                 
FULL_192         RAINGAGE-1       99-51            0.001000 0.000000 500.000000 0.500000 0.000000                 
FULL_193         RAINGAGE-1       82-51            0.001000 0.000000 500.000000 0.500000 0.000000                 
FULL_194         RAINGAGE-1       29-52            0.001000 0.000000 500.000000 0.500000 0.000000                 
FULL_195         RAINGAGE-1       17-52            0.001000 0.000000 500.000000 0.500000 0.000000                 
FULL_196         RAINGAGE-1       87-53            0.001000 0.000000 500.000000 0.500000 0.000000                 
FULL_197         RAINGAGE-1       35-53            0.001000 0.000000 500.000000 0.500000 0.000000                 
FULL_198         RAINGAGE-1       67-81            0.001000 0.000000 500.000000 0.500000 0.000000                 
FULL_199         RAINGAGE-1       39-81            0.001000 0.000000 500.000000 0.500000 0.000000                 
FULL_200         RAINGAGE-1       105-81           0.001000 0.000000 500.000000 0.500000 0.000000                 
FULL_201         RAINGAGE-1       101-81           0.001000 0.000000 500.000000 0.500000 0.000000                 
FULL_202         RAINGAGE-1       57-55            0.001000 0.000000 500.000000 0.500000 0.000000                 
FULL_203         RAINGAGE-1       63-55            0.001000 0.000000 500.000000 0.500000 0.000000                 
FULL_204         RAINGAGE-1       91-53            0.001000 0.000000 500.000000 0.500000 0.000000                 
FULL_205         RAINGAGE-1       44-54            0.001000 0.000000 500.000000 0.500000 0.000000                 
FULL_206         RAINGAGE-1       47-52            0.001000 0.000000 500.000000 0.500000 0.000000                 
FULL_207         RAINGAGE-1       100-54           0.001000 0.000000 500.000000 0.500000 0.000000                 
FULL_208         RAINGAGE-1       94-54            0.001000 0.000000 500.000000 0.500000 0.000000                 
FULL_209         RAINGAGE-1       27-53            0.001000 0.000000 500.000000 0.500000 0.000000                 
FULL_210         RAINGAGE-1       18-54            0.001000 0.000000 500.000000 0.500000 0.000000                 
FULL_211         RAINGAGE-1       65-56            0.001000 0.000000 500.000000 0.500000 0.000000                 
FULL_212         RAINGAGE-1       34-29            0.001000 0.000000 500.000000 0.500000 0.000000                 
FULL_213         RAINGAGE-1       NHP0660-0010     0.001000 0.000000 500.000000 0.500000 0.000000                 
FULL_214         RAINGAGE-1       NHP0660-0040     0.001000 0.000000 500.000000 0.500000 0.000000                 
FULL_215         RAINGAGE-1       NHP0660-0045     0.001000 0.000000 500.000000 0.500000 0.000000                 