[TITLE]
;;Project Title/Notes

[OPTIONS]
;;Option             Value
FLOW_UNITS           MGD
INFILTRATION         HORTON
FLOW_ROUTING         DYNWAVE
LINK_OFFSETS         DEPTH
MIN_SLOPE            0
ALLOW_PONDING        YES
SKIP_STEADY_STATE    NO

START_DATE           06/25/2006
START_TIME           00:00:00
REPORT_START_DATE    06/25/2006
REPORT_START_TIME    04:15:00
END_DATE             06/28/2006
END_TIME             14:00:00
SWEEP_START          01/01
SWEEP_END            12/31
DRY_DAYS             0.000000
REPORT_STEP          00:15:00
WET_STEP             00:05:00
DRY_STEP             00:15:00
ROUTING_STEP         0:00:20 

INERTIAL_DAMPING     PARTIAL
NORMAL_FLOW_LIMITED  SLOPE
FORCE_MAIN_EQUATION  H-W
VARIABLE_STEP        0.75
LENGTHENING_STEP     0
MIN_SURFAREA         0
MAX_TRIALS           0
HEAD_TOLERANCE       0
SYS_FLOW_TOL         5
LAT_FLOW_TOL         5
MINIMUM_STEP         0.5
THREADS              1

[EVAPORATION]
;;Data Source    Parameters
;;-------------- ----------------
CONSTANT         0.0
DRY_ONLY         NO

[RAINGAGES]
;;Name           Format    Interval SCF      Source    
;;-------------- --------- ------ ------ ----------
R_A_1            VOLUME    0.25     1.000000 TIMESERIES TS_A_1          
R_A_2            VOLUME    0.25     1.000000 TIMESERIES TS_A_2          
R_A_3            VOLUME    0.25     1.000000 TIMESERIES TS_A_3          
R_A_4            VOLUME    0.25     1.000000 TIMESERIES TS_A_4          
R_A_5            VOLUME    0.25     1.000000 TIMESERIES TS_A_5          
R_A_6            VOLUME    0.25     1.000000 TIMESERIES TS_A_6          
R_A_7            VOLUME    0.25     1.000000 TIMESERIES TS_A_7          
R_B_1            VOLUME    0.25     1.000000 TIMESERIES TS_B_1          
R_B_2            VOLUME    0.25     1.000000 TIMESERIES TS_B_2          
R_B_3            VOLUME    0.25     1.000000 TIMESERIES TS_B_3          
R_B_4            VOLUME    0.25     1.000000 TIMESERIES TS_B_4          
R_B_5            VOLUME    0.25     1.000000 TIMESERIES TS_B_5          
R_B_6            VOLUME    0.25     1.000000 TIMESERIES TS_B_6          
R_B_7            VOLUME    0.25     1.000000 TIMESERIES TS_B_7          
R_B_8            VOLUME    0.25     1.000000 TIMESERIES TS_B_8          
R_DC_1           VOLUME    0.25     1.000000 TIMESERIES TS_DC_1         
R_DC_2           VOLUME    0.25     1.000000 TIMESERIES TS_DC_2         
R_DC_3           VOLUME    0.25     1.000000 TIMESERIES TS_DC_3         
R_DC_4           VOLUME    0.25     1.000000 TIMESERIES TS_DC_4         
R_DC_5           VOLUME    0.25     1.000000 TIMESERIES TS_DC_5         
R_DC_6           VOLUME    0.25     1.000000 TIMESERIES TS_DC_6         
R_DC_7           VOLUME    0.25     1.000000 TIMESERIES TS_DC_7         
R_DC_8           VOLUME    0.25     1.000000 TIMESERIES TS_DC_8         
R_DC_9           VOLUME    0.25     1.000000 TIMESERIES TS_DC_9         
R_J_1            VOLUME    0.25     1.000000 TIMESERIES TS_J_1          
R_J_2            VOLUME    0.25     1.000000 TIMESERIES TS_J_2          
R_J_3            VOLUME    0.25     1.000000 TIMESERIES TS_J_3          
R_J_4            VOLUME    0.25     1.000000 TIMESERIES TS_J_4          
R_J_5            VOLUME    0.25     1.000000 TIMESERIES TS_J_5          
R_J_6            VOLUME    0.25     1.000000 TIMESERIES TS_J_6          
R_T-O_1          VOLUME    0.25     1.000000 TIMESERIES TS_T-O_1        
R_T-O_2          VOLUME    0.25     1.000000 TIMESERIES TS_T-O_2        
R_T-O_3          VOLUME    0.25     1.000000 TIMESERIES TS_T-O_3        
R_T-O_4          VOLUME    0.25     1.000000 TIMESERIES TS_T-O_4        
R_T-O_5          VOLUME    0.25     1.000000 TIMESERIES TS_T-O_5        
R_T_1            VOLUME    0.25     1.000000 TIMESERIES TS_T_1          
R_T_2            VOLUME    0.25     1.000000 TIMESERIES TS_T_2          
R_T_3            VOLUME    0.25     1.000000 TIMESERIES TS_T_3          
R_T_4            VOLUME    0.25     1.000000 TIMESERIES TS_T_4          

[SUBCATCHMENTS]
;;Name           Rain Gage        Outlet           Area     %Imperv  Width    %Slope   CurbLen  SnowPack        
;;-------------- ---------------- ---------------- -------- -------- -------- -------- -------- ----------------
; Archbald
A_1              R_A_1            MH36B            395.810602 2.500000 4244.060000 4.500000 0.000000                 
; Archbald
A_2              R_A_2            MH6B             241.785903 0.590000 3651.160000 2.000000 0.000000                 
; Archbald
A_3              R_A_3            MH3              39.866547 11.250000 1806.050000 5.700000 0.000000                 
; Archblad
A_4              R_A_4            MH1A             169.138275 10.000000 5108.250000 5.000000 0.000000                 
; Archbald
A_5              R_A_5            MH10A            207.698585 2.500000 4704.620000 7.000000 0.000000                 
; Archbald
A_6              R_A_6            MH12             91.795823 5.000000 3326.860000 9.000000 0.000000                 
; Archbald
A_7              R_A_7            MH12             9.450292 8.750000 940.160000 3.300000 0.000000                 
; Blakely
B_1              R_B_1            MH81A            145.571808 2.500000 4058.310000 4.500000 0.000000                 
; Blakely
B_2              R_B_2            MH79             6.246313 3.750000 707.430000 3.600000 0.000000                 
; Blakely
B_3              R_B_3            MH71             331.239031 5.000000 6002.370000 9.000000 0.000000                 
; Blakely
B_4              R_B_4            MH62D            321.576324 3.750000 6474.750000 3.800000 0.000000                 
; Blakely
B_5              R_B_5            MH41             2.461883 1.250000 446.120000 8.000000 0.000000                 
; Blakely
B_6              R_B_6            MH38             3.600511 1.250000 652.450000 3.800000 0.000000                 
; Blakely
B_7              R_B_7            MH64E            604.650843 1.250000 6020.250000 3.700000 0.000000                 
; Blakely
B_8              R_B_8            MH64E            2.188590 1.250000 381.340000 1.000000 0.000000                 
; Dickson CIty
DC_1             R_DC_1           MH154            211.519980 2.500000 3831.630000 2.500000 0.000000                 
; Dickson CIty
DC_2             R_DC_2           MH145            71.287187 1.250000 2083.540000 0.300000 0.000000                 
; Dickson City
DC_3             R_DC_3           MH143            58.884396 2.500000 936.000000 0.350000 0.000000                 
; Dickson City
DC_4             R_DC_4           MH118A           18.219820 2.500000 971.060000 0.750000 0.000000                 
; Dickson CIty
DC_5             R_DC_5           MH122B           492.921107 1.250000 7443.500000 6.000000 0.000000                 
; Dickson CIty
DC_6             R_DC_6           MH116            38.711351 2.500000 1753.720000 7.600000 0.000000                 
; Dickson CIty
DC_7             R_DC_7           MH154            250.760230 2.500000 1666.580000 0.500000 0.000000                 
; Dickson CIty
DC_8             R_DC_8           MH87A            234.929361 3.750000 4257.150000 8.800000 0.000000                 
; Dickson City
DC_9             R_DC_9           MH154            97.642881 1.250000 804.960000 1.700000 0.000000                 
; Jessup
J_1              R_J_1            MH52B            446.483215 2.500000 8090.700000 2.150000 0.000000                 
; Jessup
J_2              R_J_2            MH27             100.785403 1.250000 2853.640000 7.900000 0.000000                 
; Jessup
J_3              R_J_3            MH24             37.639549 1.250000 1705.160000 2.200000 0.000000                 
; Jessup
J_4              R_J_4            MH53             75.920883 11.250000 3439.400000 6.700000 0.000000                 
; Jessup
J_5              R_J_5            MH39             140.580093 1.250000 3184.310000 4.000000 0.000000                 
; Jessup
J_6              R_J_6            MH48A            39.848138 17.500000 2256.520000 1.850000 0.000000                 
; Throop-Olyphant
T-O_1            R_T-O_1          MH103            584.296833 5.000000 7562.870000 3.800000 0.000000                 
; Throop-Olyphant
T-O_2            R_T-O_2          MH75A            91.663130 7.500000 2768.370000 1.300000 0.000000                 
; Throop-Olyphant
T-O_3            R_T-O_3          MH92A            71.379113 8.750000 3821.580000 0.700000 0.000000                 
; Throop-Olyphant
T-O_4            R_T-O_4          MH91A            5.391715 5.000000 610.640000 0.700000 0.000000                 
; Throop-Olyphant
T-O_5            R_T-O_5          MH95             128.750067 3.750000 5071.900000 9.000000 0.000000                 
; Throop
T_1              R_T_1            MH202            51.759615 12.500000 2404.960000 1.000000 0.000000                 
; Throop
T_2              R_T_2            MH135B           645.042158 2.500000 7305.490000 2.150000 0.000000                 
; Throop
T_3              R_T_3            MH135B           10.717700 2.500000 349.000000 0.250000 0.000000                 
; Throop
T_4              R_T_4            MH202            1.357100 5.000000 6012.400000 3.800000 0.000000                 

[SUBAREAS]
;;Subcatchment   N-Imperv   N-Perv     S-Imperv   S-Perv     PctZero    RouteTo    PctRouted 
;;-------------- ---------- ---------- ---------- ---------- ---------- ---------- ----------
A_1              0.013000   0.200000   0.050000   0.100000   25.000000  OUTLET    
A_2              0.013000   0.200000   0.050000   0.100000   25.000000  OUTLET    
A_3              0.013000   0.200000   0.050000   0.100000   25.000000  OUTLET    
A_4              0.013000   0.200000   0.050000   0.100000   25.000000  OUTLET    
A_5              0.013000   0.200000   0.050000   0.100000   25.000000  OUTLET    
A_6              0.013000   0.200000   0.050000   0.100000   25.000000  OUTLET    
A_7              0.013000   0.200000   0.050000   0.100000   25.000000  OUTLET    
B_1              0.013000   0.200000   0.050000   0.100000   25.000000  OUTLET    
B_2              0.013000   0.200000   0.050000   0.100000   25.000000  OUTLET    
B_3              0.013000   0.200000   0.050000   0.100000   25.000000  OUTLET    
B_4              0.013000   0.200000   0.050000   0.100000   25.000000  OUTLET    
B_5              0.013000   0.200000   0.050000   0.100000   25.000000  OUTLET    
B_6              0.013000   0.200000   0.050000   0.100000   25.000000  OUTLET    
B_7              0.013000   0.200000   0.050000   0.100000   25.000000  OUTLET    
B_8              0.013000   0.200000   0.050000   0.100000   25.000000  OUTLET    
DC_1             0.013000   0.200000   0.050000   0.100000   25.000000  OUTLET    
DC_2             0.013000   0.200000   0.050000   0.100000   25.000000  OUTLET    
DC_3             0.013000   0.200000   0.050000   0.100000   25.000000  OUTLET    
DC_4             0.013000   0.200000   0.050000   0.100000   25.000000  OUTLET    
DC_5             0.013000   0.200000   0.050000   0.100000   25.000000  OUTLET    
DC_6             0.013000   0.200000   0.050000   0.100000   25.000000  OUTLET    
DC_7             0.013000   0.200000   0.050000   0.100000   25.000000  OUTLET    
DC_8             0.013000   0.200000   0.050000   0.100000   25.000000  OUTLET    
DC_9             0.013000   0.200000   0.050000   0.100000   25.000000  OUTLET    
J_1              0.013000   0.200000   0.050000   0.100000   25.000000  OUTLET    
J_2              0.013000   0.200000   0.050000   0.100000   25.000000  OUTLET    
J_3              0.013000   0.200000   0.050000   0.100000   25.000000  OUTLET    
J_4              0.013000   0.200000   0.050000   0.100000   25.000000  OUTLET    
J_5              0.013000   0.200000   0.050000   0.100000   25.000000  OUTLET    
J_6              0.013000   0.200000   0.050000   0.100000   25.000000  OUTLET    
T-O_1            0.013000   0.200000   0.050000   0.100000   25.000000  OUTLET    
T-O_2            0.013000   0.200000   0.050000   0.100000   25.000000  OUTLET    
T-O_3            0.013000   0.200000   0.050000   0.100000   25.000000  OUTLET    
T-O_4            0.013000   0.200000   0.050000   0.100000   25.000000  OUTLET    
T-O_5            0.013000   0.200000   0.050000   0.100000   25.000000  OUTLET    
T_1              0.013000   0.200000   0.050000   0.100000   25.000000  OUTLET    
T_2              0.013000   0.200000   0.050000   0.100000   25.000000  OUTLET    
T_3              0.013000   0.200000   0.050000   0.100000   25.000000  OUTLET    
T_4              0.013000   0.200000   0.050000   0.100000   25.000000  OUTLET    

[INFILTRATION]
;;Subcatchment   MaxRate    MinRate    Decay      DryTime    MaxInfil  
;;-------------- ---------- ---------- ---------- ---------- ----------
A_1              3.0        0.5        4          7          0         
A_2              20.000000  19.900000  0.050000   5.000000   0.000000  
A_3              3.0        0.5        4          7          0         
A_4              3.0        0.5        4          7          0         
A_5              3.0        0.5        4          7          0         
A_6              3.0        0.5        4          7          0         
A_7              3.0        0.5        4          7          0         
B_1              3.0        0.5        4          7          0         
B_2              3.0        0.5        4          7          0         
B_3              3.0        0.5        4          7          0         
B_4              3.0        0.5        4          7          0         
B_5              3.0        0.5        4          7          0         
B_6              3.0        0.5        4          7          0         
B_7              3.0        0.5        4          7          0         
B_8              3.0        0.5        4          7          0         
DC_1             3.0        0.5        4          7          0         
DC_2             3.0        0.5        4          7          0         
DC_3             3.0        0.5        4          7          0         
DC_4             3.0        0.5        4          7          0         
DC_5             3.0        0.5        4          7          0         
DC_6             3.0        0.5        4          7          0         
DC_7             3.0        0.5        4          7          0         
DC_8             3.0        0.5        4          7          0         
DC_9             3.0        0.5        4          7          0         
J_1              3.0        0.5        4          7          0         
J_2              3.0        0.5        4          7          0         
J_3              3.0        0.5        4          7          0         
J_4              3.0        0.5        4          7          0         
J_5              3.0        0.5        4          7          0         
J_6              3.0        0.5        4          7          0         
T-O_1            3.0        0.5        4          7          0         
T-O_2            3.0        0.5        4          7          0         
T-O_3            3.0        0.5        4          7          0         
T-O_4            3.0        0.5        4          7          0         
T-O_5            3.0        0.5        4          7          0         
T_1              3.0        0.5        4          7          0         
T_2              3.0        0.5        4          7          0         
T_3              3.0        0.5        4          7          0         
T_4              3.0        0.5        4          7          0         

[AQUIFERS]
;;Name           Por    WP     FC     Ksat   Kslope Tslope ETu    ETs    Seep   Ebot   Egw    Umc    ETupat 
;;-------------- ------ ------ ------ ------ ------ ------ ------ ------ ------ ------ ------ ------ ------
A_2              0.500000 0.150000 0.300000 10.000000 0.000000 15.000000 0.350000 0.350000 0.500000 876.000000 877.000000 0.250000       

[GROUNDWATER]
;;Subcatchment   Aquifer          Node             Esurf  A1     B1     A2     B2     A3     Dsw    Egwt   Ebot   Wgr    Umc   
;;-------------- ---------------- ---------------- ------ ------ ------ ------ ------ ------ ------ ------ ------ ------ ------
A_2              A_2              MH6B             878.000000 0.050000 1.000000 0.000000 1.000000 0.000000 877.100000 877.200000

[JUNCTIONS]
;;Name           Elevation  MaxDepth   InitDepth  SurDepth   Aponded   
;;-------------- ---------- ---------- ---------- ---------- ----------
MH-WWTP          709.500000 19.000000  0.000000   200.000000 100.000000
MH1              874.100000 5.690000   0.000000   0.000000   100.000000
MH10             866.850000 8.328000   0.000000   0.000000   100.000000
MH100            741.360000 11.150000  0.000000   0.000000   100.000000
MH100A           741.300000 11.430000  0.000000   0.000000   100.000000
MH101A           741.070000 8.930000   0.000000   0.000000   100.000000
MH103            755.000000 3.000000   0.000000   0.000000   100.000000
MH104            748.100000 11.900000  0.000000   0.000000   100.000000
MH105            741.120000 6.880000   0.000000   0.000000   100.000000
MH107A           740.850000 8.260000   0.000000   0.000000   100.000000
MH108A           739.500000 10.500000  0.000000   0.000000   100.000000
MH109            739.230000 8.050000   0.000000   0.000000   100.000000
MH10A            867.900000 5.100000   0.000000   0.000000   100.000000
MH10W            867.650000 7.520000   0.000000   0.000000   100.000000
MH11             864.750000 11.650000  0.000000   0.000000   100.000000
MH110            738.150000 10.000000  0.000000   0.000000   100.000000
MH111            737.700000 15.310000  0.000000   0.000000   100.000000
MH112            737.100000 8.910000   0.000000   0.000000   100.000000
MH113            736.500000 8.720000   0.000000   0.000000   100.000000
MH115            735.360000 8.880000   0.000000   0.000000   100.000000
MH116            734.430000 11.160000  0.000000   0.000000   100.000000
MH117            733.350000 14.650000  0.000000   0.000000   100.000000
MH117D           733.350000 14.650000  0.000000   0.000000   100.000000
MH117W           737.950000 10.050000  0.000000   0.000000   100.000000
MH117W2          737.950000 10.050000  0.000000   0.000000   0.000000  
MH118            731.430000 11.340000  0.000000   0.000000   100.000000
MH118A           731.430000 11.340000  0.000000   0.000000   100.000000
MH119            730.230000 11.370000  0.000000   0.000000   100.000000
MH12             864.390000 9.530000   0.000000   0.000000   100.000000
MH120            729.330000 12.280000  0.000000   0.000000   100.000000
MH121            727.980000 9.720000   0.000000   0.000000   100.000000
MH122            735.040000 14.960000  0.000000   0.000000   100.000000
MH122A           739.400000 10.600000  0.000000   0.000000   100.000000
MH122B           740.300000 9.700000   0.000000   0.000000   100.000000
MH122W           738.500000 11.500000  0.000000   0.000000   100.000000
MH123            734.740000 9.260000   0.000000   0.000000   100.000000
MH124            734.240000 8.260000   0.000000   0.000000   100.000000
MH125            733.740000 8.260000   0.000000   0.000000   100.000000
MH126            733.200000 6.490000   0.000000   0.000000   100.000000
MH127            730.950000 7.409000   0.000000   0.000000   100.000000
MH128            726.320000 10.010000  0.000000   0.000000   100.000000
MH129            725.570000 10.280000  0.000000   0.000000   100.000000
MH13             886.000000 6.000000   0.000000   0.000000   100.000000
MH130            724.670000 10.520000  0.000000   0.000000   100.000000
MH131            723.800000 11.290000  0.000000   0.000000   100.000000
MH132            722.900000 10.280000  0.000000   0.000000   100.000000
MH133            721.670000 10.670000  0.000000   0.000000   100.000000
MH134            721.100000 12.330000  0.000000   0.000000   100.000000
MH135            723.000000 13.000000  0.000000   0.000000   100.000000
MH135A           732.000000 13.000000  0.000000   0.000000   100.000000
MH135B           736.600000 8.400000   0.000000   0.000000   100.000000
MH135W           732.000000 4.000000   0.000000   0.000000   100.000000
MH135WR          731.000000 5.000000   0.000000   0.000000   100.000000
MH136            719.970000 11.240000  0.000000   0.000000   100.000000
MH137            719.720000 11.220000  0.000000   0.000000   100.000000
MH138            719.200000 13.400000  0.000000   0.000000   100.000000
MH139            718.680000 13.310000  0.000000   0.000000   100.000000
MH13P            861.500000 12.500000  0.000000   200.000000 100.000000
MH13P2           861.500000 12.500000  0.000000   200.000000 100.000000
MH14             884.500000 6.360000   0.000000   0.000000   100.000000
MH140            718.380000 13.560000  0.000000   0.000000   100.000000
MH141            717.870000 13.640000  0.000000   0.000000   100.000000
MH142            717.460000 13.740000  0.000000   0.000000   100.000000
MH143            717.250000 12.100000  0.000000   0.000000   100.000000
MH144            717.020000 14.840000  0.000000   0.000000   100.000000
MH145            716.780000 12.860000  0.000000   0.000000   100.000000
MH146            716.610000 12.600000  0.000000   0.000000   100.000000
MH147            716.010000 14.060000  0.000000   0.000000   100.000000
MH148            715.840000 13.370000  0.000000   0.000000   100.000000
MH149            715.730000 11.700000  0.000000   0.000000   100.000000
MH15             882.000000 4.370000   0.000000   0.000000   100.000000
MH150            715.260000 14.930000  0.000000   0.000000   100.000000
MH151            717.040000 13.540000  0.000000   0.000000   100.000000
MH152            718.040000 10.690000  0.000000   0.000000   100.000000
MH153            719.040000 9.420000   0.000000   0.000000   100.000000
MH154            720.000000 11.146000  0.000000   0.000000   100.000000
MH155            714.800000 13.220000  0.000000   0.000000   100.000000
MH155GC          714.740000 13.260000  0.000000   0.000000   100.000000
MH156            742.000000 6.500000   0.000000   0.000000   100.000000
MH16             879.500000 6.500000   0.000000   0.000000   100.000000
MH17             878.130000 11.210000  0.000000   0.000000   100.000000
MH18             876.680000 7.340000   0.000000   0.000000   100.000000
MH19             874.880000 7.520000   0.000000   0.000000   100.000000
MH1A             874.700000 5.300000   0.000000   0.000000   100.000000
MH2              872.000000 6.000000   0.000000   0.000000   100.000000
MH20             872.240000 6.760000   0.000000   0.000000   100.000000
MH200            715.540000 12.430000  0.000000   0.000000   100.000000
MH200P           722.000000 8.000000   0.000000   200.000000 100.000000
MH201            715.000000 13.010000  0.000000   0.000000   100.000000
MH202            716.220000 13.270000  0.000000   0.000000   100.000000
MH21             870.260000 6.840000   0.000000   0.000000   100.000000
MH22             867.950000 6.050000   0.000000   0.000000   100.000000
MH23             865.640000 6.460000   0.000000   0.000000   100.000000
MH24             863.000000 6.540000   0.000000   0.000000   100.000000
MH25             860.360000 6.630000   0.000000   0.000000   100.000000
MH26             859.380000 6.350000   0.000000   0.000000   100.000000
MH26A            858.490000 8.380000   0.000000   0.000000   100.000000
MH27             855.740000 9.750000   0.000000   0.000000   100.000000
MH28             853.300000 7.680000   0.000000   0.000000   100.000000
MH29             850.860000 8.350000   0.000000   0.000000   100.000000
MH3              875.000000 4.210000   0.000000   0.000000   100.000000
MH30             848.220000 9.100000   0.000000   0.000000   100.000000
MH31             845.580000 6.410000   0.000000   0.000000   100.000000
MH32             841.580000 6.320000   0.000000   0.000000   100.000000
MH34             835.580000 8.220000   0.000000   0.000000   100.000000
MH35             833.430000 6.420000   0.000000   0.000000   100.000000
MH36             820.000000 16.670000  0.000000   0.000000   100.000000
MH36B            823.820000 12.850000  0.000000   0.000000   100.000000
MH36W            822.860000 13.810000  0.000000   0.000000   100.000000
MH37             818.950000 15.660000  0.000000   0.000000   100.000000
MH38             817.630000 12.260000  0.000000   0.000000   100.000000
MH39             813.420000 10.540000  0.000000   0.000000   100.000000
MH4              869.000000 9.840000   0.000000   0.000000   100.000000
MH40             808.000000 14.810000  0.000000   0.000000   100.000000
MH41             807.000000 19.090000  0.000000   0.000000   100.000000
MH42             805.010000 15.840000  0.000000   0.000000   100.000000
MH43             803.500000 12.780000  0.000000   0.000000   100.000000
MH44             802.300000 9.520000   0.000000   0.000000   100.000000
MH45             800.800000 9.200000   0.000000   0.000000   100.000000
MH46             800.200000 10.200000  0.000000   0.000000   100.000000
MH47             792.760000 15.520000  0.000000   0.000000   100.000000
MH48             802.510000 8.510000   0.000000   0.000000   100.000000
MH48A            804.770000 6.110000   0.000000   0.000000   100.000000
MH48W            803.260000 7.760000   0.000000   0.000000   100.000000
MH49             799.500000 10.500000  0.000000   0.000000   100.000000
MH5              869.620000 8.920000   0.000000   0.000000   100.000000
MH50             791.000000 12.750000  0.000000   0.000000   100.000000
MH51             787.000000 7.668000   0.000000   0.000000   100.000000
MH52             789.020000 10.800000  0.000000   0.000000   100.000000
MH52A            793.400000 11.600000  0.000000   0.000000   100.000000
MH52B            796.000000 9.000000   0.000000   0.000000   100.000000
MH52W            792.470000 7.350000   0.000000   0.000000   100.000000
MH53             794.390000 9.360000   0.000000   0.000000   100.000000
MH54             787.200000 6.870000   0.000000   0.000000   100.000000
MH55             783.020000 7.800000   0.000000   0.000000   100.000000
MH56             785.200000 13.300000  0.000000   0.000000   100.000000
MH57             783.050000 15.520000  0.000000   0.000000   100.000000
MH58             781.000000 9.330000   0.000000   0.000000   100.000000
MH59             778.650000 9.620000   0.000000   0.000000   100.000000
MH6              871.180000 5.830000   0.000000   0.000000   100.000000
MH60             776.300000 6.700000   0.000000   0.000000   100.000000
MH61             772.770000 5.730000   0.000000   0.000000   100.000000
MH62             769.600000 12.520000  0.000000   0.000000   100.000000
MH62A            769.500000 12.080000  0.000000   0.000000   100.000000
MH62B            769.440000 10.560000  0.000000   0.000000   100.000000
MH62C            768.000000 10.990000  0.000000   0.000000   100.000000
MH62D            772.000000 9.310000   0.000000   0.000000   100.000000
MH63A            767.500000 11.070000  0.000000   0.000000   100.000000
MH63B            767.000000 11.860000  0.000000   0.000000   100.000000
MH64             766.000000 13.680000  0.000000   0.000000   100.000000
MH64B            770.000000 11.420000  0.000000   0.000000   100.000000
MH64C            765.000000 14.250000  0.000000   0.000000   100.000000
MH64E            772.000000 8.000000   0.000000   0.000000   100.000000
MH65             764.690000 7.810000   0.000000   0.000000   100.000000
MH66             763.690000 8.310000   0.000000   0.000000   100.000000
MH67             762.190000 11.810000  0.000000   0.000000   100.000000
MH68             760.190000 10.990000  0.000000   0.000000   100.000000
MH69             758.190000 12.730000  0.000000   0.000000   100.000000
MH6A             876.380000 18.620000  0.000000   0.000000   100.000000
MH6B             877.100000 22.900000  0.000000   0.000000   100.000000
MH6W             874.150000 2.860000   0.000000   0.000000   100.000000
MH7              868.530000 8.290000   0.000000   0.000000   100.000000
MH70             755.690000 13.110000  0.000000   0.000000   100.000000
MH71             764.160000 5.840000   0.000000   0.000000   100.000000
MH72             754.290000 13.940000  0.000000   0.000000   100.000000
MH73             753.040000 13.030000  0.000000   0.000000   100.000000
MH74             752.040000 14.200000  0.000000   0.000000   100.000000
MH75             755.000000 11.000000  0.000000   0.000000   100.000000
MH75A            759.400000 6.600000   0.000000   0.000000   100.000000
MH76             751.160000 11.240000  0.000000   0.000000   100.000000
MH77             750.280000 13.270000  0.000000   0.000000   100.000000
MH78             749.950000 12.580000  0.000000   0.000000   100.000000
MH79             748.700000 13.490000  0.000000   0.000000   100.000000
MH8              867.930000 9.360000   0.000000   0.000000   100.000000
MH80             747.450000 15.110000  0.000000   0.000000   100.000000
MH81             760.000000 8.000000   0.000000   0.000000   100.000000
MH81A            763.300000 4.700000   0.000000   0.000000   100.000000
MH81W            760.900000 6.900000   0.000000   0.000000   100.000000
MH82             759.000000 10.000000  0.000000   0.000000   100.000000
MH83             754.000000 13.800000  0.000000   0.000000   100.000000
MH84             746.950000 13.380000  0.000000   0.000000   100.000000
MH85             746.720000 17.280000  0.000000   0.000000   100.000000
MH86             745.920000 13.630000  0.000000   0.000000   100.000000
MH87             745.600000 9.400000   0.000000   0.000000   100.000000
MH87A            753.000000 3.000000   0.000000   0.000000   100.000000