[TITLE]
;;Project Title/Notes

[OPTIONS]
;;Option             Value
FLOW_UNITS           CFS
INFILTRATION         HORTON
FLOW_ROUTING         DYNWAVE
LINK_OFFSETS         DEPTH
MIN_SLOPE            0
ALLOW_PONDING        YES
SKIP_STEADY_STATE    NO

START_DATE           01/01/2002
START_TIME           00:00:00
REPORT_START_DATE    01/01/2002
REPORT_START_TIME    00:00:00
END_DATE             01/01/2002
END_TIME             16:00:00
SWEEP_START          01/01
SWEEP_END            12/31
DRY_DAYS             0
REPORT_STEP          00:15:00
WET_STEP             00:15:00
DRY_STEP             24:15:00
ROUTING_STEP         0:00:05 

INERTIAL_DAMPING     NONE
NORMAL_FLOW_LIMITED  SLOPE
FORCE_MAIN_EQUATION  H-W
VARIABLE_STEP        0.00
LENGTHENING_STEP     5
MIN_SURFAREA         0.75
MAX_TRIALS           8
HEAD_TOLERANCE       0.001
SYS_FLOW_TOL         5
LAT_FLOW_TOL         5
MINIMUM_STEP         0.5
THREADS              1

[EVAPORATION]
;;Data Source    Parameters
;;-------------- ----------------
CONSTANT         0.0
DRY_ONLY         NO

[RAINGAGES]
;;Name           Format    Interval SCF      Source    
;;-------------- --------- ------ ------ ----------
1                INTENSITY 1:00     1.0      TIMESERIES MyStorm         

[SUBCATCHMENTS]
;;Name           Rain Gage        Outlet           Area     %Imperv  Width    %Slope   CurbLen  SnowPack        
;;-------------- ---------------- ---------------- -------- -------- -------- -------- -------- ----------------
; E11137
SUB-10           1                E11137           3.802507 40.000000 500.000000 0.500000 0.000000                 
; E12208
SUB-100          1                E12208           1.681960 40.000000 500.000000 0.500000 0.000000                 
; E12201
SUB-102          1                E12201           3.011561 40.000000 500.000000 0.500000 0.000000                 
; E11188
SUB-104          1                E11188           0.696037 40.000000 500.000000 0.500000 0.000000                 
; E11182
SUB-106          1                E11182           1.083384 40.000000 500.000000 0.500000 0.000000                 
; E12156
SUB-108          1                E12156           0.324846 40.000000 500.000000 0.500000 0.000000                 
; E12155
SUB-110          1                E12155           0.099929 40.000000 500.000000 0.500000 0.000000                 
; E12196
SUB-112          1                E12196           1.338323 40.000000 500.000000 0.500000 0.000000                 
; E12196
SUB-114          1                E12196           0.077197 40.000000 500.000000 0.500000 0.000000                 
; E12192
SUB-116          1                E12192           0.778795 40.000000 500.000000 0.500000 0.000000                 
; E11184
SUB-118          1                E11184           4.088022 40.000000 500.000000 0.500000 0.000000                 
; F1158
SUB-12           1                F1158            0.176310 40.000000 500.000000 0.500000 0.000000                 
; E11180
SUB-120          1                E11180           1.108896 40.000000 500.000000 0.500000 0.000000                 
; E11177
SUB-122          1                E11177           0.253778 40.000000 500.000000 0.500000 0.000000                 
; E11175
SUB-124          1                E11175           0.289327 40.000000 500.000000 0.500000 0.000000                 
; E11441
SUB-126          1                E11441           0.479259 40.000000 500.000000 0.500000 0.000000                 
; E11176
SUB-128          1                E11176           0.520457 40.000000 500.000000 0.500000 0.000000                 
; E11178
SUB-130          1                E11178           0.797969 40.000000 500.000000 0.500000 0.000000                 
; E11179
SUB-132          1                E11179           0.144715 40.000000 500.000000 0.500000 0.000000                 
; E11186
SUB-134          1                E11186           0.116993 40.000000 500.000000 0.500000 0.000000                 
; E11172
SUB-136          1                E11172           0.403242 40.000000 500.000000 0.500000 0.000000                 
; E11173
SUB-138          1                E11173           0.164551 40.000000 500.000000 0.500000 0.000000                 
; JCT-26
SUB-14           1                JCT-26           0.011786 40.000000 500.000000 0.500000 0.000000                 
; E11211
SUB-140          1                E11211           0.839921 40.000000 500.000000 0.500000 0.000000                 
; E11171
SUB-142          1                E11171           0.748978 40.000000 500.000000 0.500000 0.000000                 
; E11141
SUB-144          1                E11141           6.157036 40.000000 500.000000 0.500000 0.000000                 
; E11142
SUB-146          1                E11142           3.865057 40.000000 500.000000 0.500000 0.000000                 
; E11213
SUB-148          1                E11213           0.292485 40.000000 500.000000 0.500000 0.000000                 
; E11146
SUB-150          1                E11146           1.252525 40.000000 500.000000 0.500000 0.000000                 
; E11130
SUB-152          1                E11130           0.153717 40.000000 500.000000 0.500000 0.000000                 
; E11144
SUB-154          1                E11144           0.603195 40.000000 500.000000 0.500000 0.000000                 
; E11151
SUB-156          1                E11151           1.069794 40.000000 500.000000 0.500000 0.000000                 
; E11149
SUB-158          1                E11149           0.688955 40.000000 500.000000 0.500000 0.000000                 
; E1194
SUB-16           1                E1194            2.664776 40.000000 500.000000 0.500000 0.000000                 
; E11148
SUB-160          1                E11148           0.086293 40.000000 500.000000 0.500000 0.000000                 
; E12170
SUB-162          1                E12170           1.284330 40.000000 500.000000 0.500000 0.000000                 
; E12167
SUB-164          1                E12167           1.607426 40.000000 500.000000 0.500000 0.000000                 
; E12164
SUB-166          1                E12164           1.902211 40.000000 500.000000 0.500000 0.000000                 
; E12162
SUB-168          1                E12162           0.372219 40.000000 500.000000 0.500000 0.000000                 
; E12159
SUB-170          1                E12159           0.087753 40.000000 500.000000 0.500000 0.000000                 
; E12158
SUB-172          1                E12158           0.507293 40.000000 500.000000 0.500000 0.000000                 
; E12154
SUB-174          1                E12154           0.689493 40.000000 500.000000 0.500000 0.000000                 
; E11442
SUB-176          1                E11442           1.284186 40.000000 500.000000 0.500000 0.000000                 
; E11125
SUB-178          1                E11125           0.060176 40.000000 500.000000 0.500000 0.000000                 
; E11121
SUB-18           1                E11121           1.825136 40.000000 500.000000 0.500000 0.000000                 
; E11126
SUB-180          1                E11126           0.062485 40.000000 500.000000 0.500000 0.000000                 
; E11127
SUB-182          1                E11127           1.387697 40.000000 500.000000 0.500000 0.000000                 
; E11129
SUB-184          1                E11129           2.137600 40.000000 500.000000 0.500000 0.000000                 
; E11128
SUB-186          1                E11128           12.505483 40.000000 500.000000 0.500000 0.000000                 
; F11110
SUB-188          1                F11110           1.461666 40.000000 500.000000 0.500000 0.000000                 
; F11109
SUB-190          1                F11109           1.582918 40.000000 500.000000 0.500000 0.000000                 
; F11108
SUB-192          1                F11108           0.510921 40.000000 500.000000 0.500000 0.000000                 
; E11102
SUB-194          1                E11102           1.536266 40.000000 500.000000 0.500000 0.000000                 
; E11104
SUB-196          1                E11104           0.047891 40.000000 500.000000 0.500000 0.000000                 
; E11106
SUB-198          1                E11106           0.114112 40.000000 500.000000 0.500000 0.000000                 
; E11120
SUB-20           1                E11120           0.852407 40.000000 500.000000 0.500000 0.000000                 
; F1162
SUB-200          1                F1162            0.836875 40.000000 500.000000 0.500000 0.000000                 
; F1168
SUB-202          1                F1168            0.120470 40.000000 500.000000 0.500000 0.000000                 
; F1172
SUB-204          1                F1172            0.816039 40.000000 500.000000 0.500000 0.000000                 
; F1170
SUB-206          1                F1170            0.100737 40.000000 500.000000 0.500000 0.000000                 
; F1173
SUB-208          1                F1173            2.162222 40.000000 500.000000 0.500000 0.000000                 
; F1169
SUB-210          1                F1169            0.970847 40.000000 500.000000 0.500000 0.000000                 
; F1166
SUB-212          1                F1166            0.591570 40.000000 500.000000 0.500000 0.000000                 
; F1165
SUB-214          1                F1165            1.093126 40.000000 500.000000 0.500000 0.000000                 
; F1164
SUB-216          1                F1164            0.942832 40.000000 500.000000 0.500000 0.000000                 
; F1144
SUB-218          1                F1144            1.890893 40.000000 500.000000 0.500000 0.000000                 
; E11117
SUB-22           1                E11117           1.872697 40.000000 500.000000 0.500000 0.000000                 
; F1146
SUB-220          1                F1146            2.169890 40.000000 500.000000 0.500000 0.000000                 
; F1150
SUB-222          1                F1150            0.378245 40.000000 500.000000 0.500000 0.000000                 
; F1154
SUB-224          1                F1154            1.622861 40.000000 500.000000 0.500000 0.000000                 
; E1185
SUB-226          1                E1185            5.066128 40.000000 500.000000 0.500000 0.000000                 
; E1186
SUB-228          1                E1186            2.123749 40.000000 500.000000 0.500000 0.000000                 
; E1183
SUB-230          1                E1183            1.801318 40.000000 500.000000 0.500000 0.000000                 
; E1182
SUB-232          1                E1182            1.015634 40.000000 500.000000 0.500000 0.000000                 
; E1181
SUB-234          1                E1181            0.265353 40.000000 500.000000 0.500000 0.000000                 
; E11136
SUB-236          1                E11136           2.456257 40.000000 500.000000 0.500000 0.000000                 
; E11115
SUB-24           1                E11115           0.621783 40.000000 500.000000 0.500000 0.000000                 
; E11124
SUB-26           1                E11124           0.721773 40.000000 500.000000 0.500000 0.000000                 
; E11134
SUB-28           1                E11134           1.287843 40.000000 500.000000 0.500000 0.000000                 
; E11132
SUB-30           1                E11132           1.299069 40.000000 500.000000 0.500000 0.000000                 
; E11215
SUB-32           1                E11215           0.785649 40.000000 500.000000 0.500000 0.000000                 
; JCT-10
SUB-34           1                JCT-10           0.508304 40.000000 500.000000 0.500000 0.000000                 
; E11446
SUB-36           1                E11446           0.927509 40.000000 500.000000 0.500000 0.000000                 
; E11100
SUB-38           1                E11100           0.219759 40.000000 500.000000 0.500000 0.000000                 
; E1198
SUB-40           1                E1198            0.157380 40.000000 500.000000 0.500000 0.000000                 
; E11112
SUB-42           1                E11112           0.303949 40.000000 500.000000 0.500000 0.000000                 
; E1197
SUB-44           1                E1197            0.480230 40.000000 500.000000 0.500000 0.000000                 
; E11216
SUB-46           1                E11216           3.203304 40.000000 500.000000 0.500000 0.000000                 
; E11217
SUB-48           1                E11217           4.882915 40.000000 500.000000 0.500000 0.000000                 
; E11447
SUB-50           1                E11447           7.473984 40.000000 500.000000 0.500000 0.000000                 
; E1177
SUB-52           1                E1177            1.907550 40.000000 500.000000 0.500000 0.000000                 
; E1160
SUB-54           1                E1160            0.166777 40.000000 500.000000 0.500000 0.000000                 
; E1193
SUB-56           1                E1193            0.485692 40.000000 500.000000 0.500000 0.000000                 
; JCT-28
SUB-58           1                JCT-28           0.478194 40.000000 500.000000 0.500000 0.000000                 
; E11444
SUB-60           1                E11444           0.352430 40.000000 500.000000 0.500000 0.000000                 
; E11443
SUB-62           1                E11443           7.368396 40.000000 500.000000 0.500000 0.000000                 
; JCT-38
SUB-64           1                JCT-38           0.030105 40.000000 500.000000 0.500000 0.000000                 
; JCT-40
SUB-66           1                JCT-40           0.084360 40.000000 500.000000 0.500000 0.000000                 
; F1159
SUB-68           1                F1159            0.537038 40.000000 500.000000 0.500000 0.000000                 
SUB-70           1                F1161            0.854061 40.000000 500.000000 0.500000 0.000000                 
; JCT-32
SUB-72           1                JCT-32           0.038450 40.000000 500.000000 0.500000 0.000000                 
; E1179
SUB-74           1                E1179            0.093877 40.000000 500.000000 0.500000 0.000000                 
; JCT-34
SUB-76           1                JCT-34           0.110747 40.000000 500.000000 0.500000 0.000000                 
; JCT-30
SUB-78           1                JCT-30           0.018977 40.000000 500.000000 0.500000 0.000000                 
; E1180
SUB-80           1                E1180            0.171876 40.000000 500.000000 0.500000 0.000000                 
; E12200
SUB-82           1                E12200           1.723018 40.000000 500.000000 0.500000 0.000000                 
; E12198
SUB-84           1                E12198           8.915562 40.000000 500.000000 0.500000 0.000000                 
; E12194
SUB-86           1                E12194           3.470919 40.000000 500.000000 0.500000 0.000000                 
; E12193
SUB-88           1                E12193           6.464063 40.000000 500.000000 0.500000 0.000000                 
; E12205
SUB-90           1                E12205           11.085304 40.000000 500.000000 0.500000 0.000000                 
; E12206
SUB-92           1                E12206           11.215499 40.000000 500.000000 0.500000 0.000000                 
; E12207
SUB-94           1                E12207           9.348776 40.000000 500.000000 0.500000 0.000000                 
; E12160
SUB-96           1                E12160           0.689319 40.000000 500.000000 0.500000 0.000000                 
; E12161
SUB-98           1                E12161           0.354667 40.000000 500.000000 0.500000 0.000000                 

[SUBAREAS]
;;Subcatchment   N-Imperv   N-Perv     S-Imperv   S-Perv     PctZero    RouteTo    PctRouted 
;;-------------- ---------- ---------- ---------- ---------- ---------- ---------- ----------
SUB-10           0.100000   0.001000   0.050000   0.050000   25.000000  OUTLET    
SUB-100          0.100000   0.001000   0.050000   0.050000   25.000000  OUTLET    
SUB-102          0.100000   0.001000   0.050000   0.050000   25.000000  OUTLET    
SUB-104          0.100000   0.001000   0.050000   0.050000   25.000000  OUTLET    
SUB-106          0.100000   0.001000   0.050000   0.050000   25.000000  OUTLET    
SUB-108          0.100000   0.001000   0.050000   0.050000   25.000000  OUTLET    
SUB-110          0.100000   0.001000   0.050000   0.050000   25.000000  OUTLET    
SUB-112          0.100000   0.001000   0.050000   0.050000   25.000000  OUTLET    
SUB-114          0.100000   0.001000   0.050000   0.050000   25.000000  OUTLET    
SUB-116          0.100000   0.001000   0.050000   0.050000   25.000000  OUTLET    
SUB-118          0.100000   0.001000   0.050000   0.050000   25.000000  OUTLET    
SUB-12           0.100000   0.001000   0.050000   0.050000   25.000000  OUTLET    
SUB-120          0.100000   0.001000   0.050000   0.050000   25.000000  OUTLET    
SUB-122          0.100000   0.001000   0.050000   0.050000   25.000000  OUTLET    
SUB-124          0.100000   0.001000   0.050000   0.050000   25.000000  OUTLET    
SUB-126          0.100000   0.001000   0.050000   0.050000   25.000000  OUTLET    
SUB-128          0.100000   0.001000   0.050000   0.050000   25.000000  OUTLET    
SUB-130          0.100000   0.001000   0.050000   0.050000   25.000000  OUTLET    
SUB-132          0.100000   0.001000   0.050000   0.050000   25.000000  OUTLET    
SUB-134          0.100000   0.001000   0.050000   0.050000   25.000000  OUTLET    
SUB-136          0.100000   0.001000   0.050000   0.050000   25.000000  OUTLET    
SUB-138          0.100000   0.001000   0.050000   0.050000   25.000000  OUTLET    
SUB-14           0.100000   0.001000   0.050000   0.050000   25.000000  OUTLET    
SUB-140          0.100000   0.001000   0.050000   0.050000   25.000000  OUTLET    
SUB-142          0.100000   0.001000   0.050000   0.050000   25.000000  OUTLET    
SUB-144          0.100000   0.001000   0.050000   0.050000   25.000000  OUTLET    
SUB-146          0.100000   0.001000   0.050000   0.050000   25.000000  OUTLET    
SUB-148          0.100000   0.001000   0.050000   0.050000   25.000000  OUTLET    
SUB-150          0.100000   0.001000   0.050000   0.050000   25.000000  OUTLET    
SUB-152          0.100000   0.001000   0.050000   0.050000   25.000000  OUTLET    
SUB-154          0.100000   0.001000   0.050000   0.050000   25.000000  OUTLET    
SUB-156          0.100000   0.001000   0.050000   0.050000   25.000000  OUTLET    
SUB-158          0.100000   0.001000   0.050000   0.050000   25.000000  OUTLET    
SUB-16           0.100000   0.001000   0.050000   0.050000   25.000000  OUTLET    
SUB-160          0.100000   0.001000   0.050000   0.050000   25.000000  OUTLET    
SUB-162          0.100000   0.001000   0.050000   0.050000   25.000000  OUTLET    
SUB-164          0.100000   0.001000   0.050000   0.050000   25.000000  OUTLET    
SUB-166          0.100000   0.001000   0.050000   0.050000   25.000000  OUTLET    
SUB-168          0.100000   0.001000   0.050000   0.050000   25.000000  OUTLET    
SUB-170          0.100000   0.001000   0.050000   0.050000   25.000000  OUTLET    
SUB-172          0.100000   0.001000   0.050000   0.050000   25.000000  OUTLET    
SUB-174          0.100000   0.001000   0.050000   0.050000   25.000000  OUTLET    
SUB-176          0.100000   0.001000   0.050000   0.050000   25.000000  OUTLET    
SUB-178          0.100000   0.001000   0.050000   0.050000   25.000000  OUTLET    
SUB-18           0.100000   0.001000   0.050000   0.050000   25.000000  OUTLET    
SUB-180          0.100000   0.001000   0.050000   0.050000   25.000000  OUTLET    
SUB-182          0.100000   0.001000   0.050000   0.050000   25.000000  OUTLET    
SUB-184          0.100000   0.001000   0.050000   0.050000   25.000000  OUTLET    
SUB-186          0.100000   0.001000   0.050000   0.050000   25.000000  OUTLET    
SUB-188          0.100000   0.001000   0.050000   0.050000   25.000000  OUTLET    
SUB-190          0.100000   0.001000   0.050000   0.050000   25.000000  OUTLET    
SUB-192          0.100000   0.001000   0.050000   0.050000   25.000000  OUTLET    
SUB-194          0.100000   0.001000   0.050000   0.050000   25.000000  OUTLET    
SUB-196          0.100000   0.001000   0.050000   0.050000   25.000000  OUTLET    
SUB-198          0.100000   0.001000   0.050000   0.050000   25.000000  OUTLET    
SUB-20           0.100000   0.001000   0.050000   0.050000   25.000000  OUTLET    
SUB-200          0.100000   0.001000   0.050000   0.050000   25.000000  OUTLET    
SUB-202          0.100000   0.001000   0.050000   0.050000   25.000000  OUTLET    
SUB-204          0.100000   0.001000   0.050000   0.050000   25.000000  OUTLET    
SUB-206          0.100000   0.001000   0.050000   0.050000   25.000000  OUTLET    
SUB-208          0.100000   0.001000   0.050000   0.050000   25.000000  OUTLET    
SUB-210          0.100000   0.001000   0.050000   0.050000   25.000000  OUTLET    
SUB-212          0.100000   0.001000   0.050000   0.050000   25.000000  OUTLET    
SUB-214          0.100000   0.001000   0.050000   0.050000   25.000000  OUTLET    
SUB-216          0.100000   0.001000   0.050000   0.050000   25.000000  OUTLET    
SUB-218          0.100000   0.001000   0.050000   0.050000   25.000000  OUTLET    
SUB-22           0.100000   0.001000   0.050000   0.050000   25.000000  OUTLET    
SUB-220          0.100000   0.001000   0.050000   0.050000   25.000000  OUTLET    
SUB-222          0.100000   0.001000   0.050000   0.050000   25.000000  OUTLET    
SUB-224          0.100000   0.001000   0.050000   0.050000   25.000000  OUTLET    
SUB-226          0.100000   0.001000   0.050000   0.050000   25.000000  OUTLET    
SUB-228          0.100000   0.001000   0.050000   0.050000   25.000000  OUTLET    
SUB-230          0.100000   0.001000   0.050000   0.050000   25.000000  OUTLET    
SUB-232          0.100000   0.001000   0.050000   0.050000   25.000000  OUTLET    
SUB-234          0.100000   0.001000   0.050000   0.050000   25.000000  OUTLET    
SUB-236          0.100000   0.001000   0.050000   0.050000   25.000000  OUTLET    
SUB-24           0.100000   0.001000   0.050000   0.050000   25.000000  OUTLET    
SUB-26           0.100000   0.001000   0.050000   0.050000   25.000000  OUTLET    
SUB-28           0.100000   0.001000   0.050000   0.050000   25.000000  OUTLET    
SUB-30           0.100000   0.001000   0.050000   0.050000   25.000000  OUTLET    
SUB-32           0.100000   0.001000   0.050000   0.050000   25.000000  OUTLET    
SUB-34           0.100000   0.001000   0.050000   0.050000   25.000000  OUTLET    
SUB-36           0.100000   0.001000   0.050000   0.050000   25.000000  OUTLET    
SUB-38           0.100000   0.001000   0.050000   0.050000   25.000000  OUTLET    
SUB-40           0.100000   0.001000   0.050000   0.050000   25.000000  OUTLET    
SUB-42           0.100000   0.001000   0.050000   0.050000   25.000000  OUTLET    
SUB-44           0.100000   0.001000   0.050000   0.050000   25.000000  OUTLET    
SUB-46           0.100000   0.001000   0.050000   0.050000   25.000000  OUTLET    
SUB-48           0.100000   0.001000   0.050000   0.050000   25.000000  OUTLET    
SUB-50           0.100000   0.001000   0.050000   0.050000   25.000000  OUTLET    
SUB-52           0.100000   0.001000   0.050000   0.050000   25.000000  OUTLET    
SUB-54           0.100000   0.001000   0.050000   0.050000   25.000000  OUTLET    
SUB-56           0.100000   0.001000   0.050000   0.050000   25.000000  OUTLET    
SUB-58           0.100000   0.001000   0.050000   0.050000   25.000000  OUTLET    
SUB-60           0.100000   0.001000   0.050000   0.050000   25.000000  OUTLET    
SUB-62           0.100000   0.001000   0.050000   0.050000   25.000000  OUTLET    
SUB-64           0.100000   0.001000   0.050000   0.050000   25.000000  OUTLET    
SUB-66           0.100000   0.001000   0.050000   0.050000   25.000000  OUTLET    
SUB-68           0.100000   0.001000   0.050000   0.050000   25.000000  OUTLET    
SUB-70           0.100000   0.001000   0.050000   0.050000   25.000000  OUTLET    
SUB-72           0.100000   0.001000   0.050000   0.050000   25.000000  OUTLET    
SUB-74           0.100000   0.001000   0.050000   0.050000   25.000000  OUTLET    
SUB-76           0.100000   0.001000   0.050000   0.050000   25.000000  OUTLET    
SUB-78           0.100000   0.001000   0.050000   0.050000   25.000000  OUTLET    
SUB-80           0.100000   0.001000   0.050000   0.050000   25.000000  OUTLET    
SUB-82           0.100000   0.001000   0.050000   0.050000   25.000000  OUTLET    
SUB-84           0.100000   0.001000   0.050000   0.050000   25.000000  OUTLET    
SUB-86           0.100000   0.001000   0.050000   0.050000   25.000000  OUTLET    
SUB-88           0.100000   0.001000   0.050000   0.050000   25.000000  OUTLET    
SUB-90           0.100000   0.001000   0.050000   0.050000   25.000000  OUTLET    
SUB-92           0.100000   0.001000   0.050000   0.050000   25.000000  OUTLET    
SUB-94           0.100000   0.001000   0.050000   0.050000   25.000000  OUTLET    
SUB-96           0.100000   0.001000   0.050000   0.050000   25.000000  OUTLET    
SUB-98           0.100000   0.001000   0.050000   0.050000   25.000000  OUTLET    

[INFILTRATION]
;;Subcatchment   MaxRate    MinRate    Decay      DryTime    MaxInfil  
;;-------------- ---------- ---------- ---------- ---------- ----------
SUB-10           3.0        0.5        4          7          0         
SUB-100          3.0        0.5        4          7          0         
SUB-102          3.0        0.5        4          7          0         
SUB-104          3.0        0.5        4          7          0         
SUB-106          3.0        0.5        4          7          0         
SUB-108          3.0        0.5        4          7          0         
SUB-110          3.0        0.5        4          7          0         
SUB-112          3.0        0.5        4          7          0         
SUB-114          3.0        0.5        4          7          0         
SUB-116          3.0        0.5        4          7          0         
SUB-118          3.0        0.5        4          7          0         
SUB-12           3.0        0.5        4          7          0         
SUB-120          3.0        0.5        4          7          0         
SUB-122          3.0        0.5        4          7          0         
SUB-124          3.0        0.5        4          7          0         
SUB-126          3.0        0.5        4          7          0         
SUB-128          3.0        0.5        4          7          0         
SUB-130          3.0        0.5        4          7          0         
SUB-132          3.0        0.5        4          7          0         
SUB-134          3.0        0.5        4          7          0         
SUB-136          3.0        0.5        4          7          0         
SUB-138          3.0        0.5        4          7          0         
SUB-14           3.0        0.5        4          7          0         
SUB-140          3.0        0.5        4          7          0         
SUB-142          3.0        0.5        4          7          0         
SUB-144          3.0        0.5        4          7          0         
SUB-146          3.0        0.5        4          7          0         
SUB-148          3.0        0.5        4          7          0         
SUB-150          3.0        0.5        4          7          0         
SUB-152          3.0        0.5        4          7          0         
SUB-154          3.0        0.5        4          7          0         
SUB-156          3.0        0.5        4          7          0         
SUB-158          3.0        0.5        4          7          0         
SUB-16           3.0        0.5        4          7          0         
SUB-160          3.0        0.5        4          7          0         
SUB-162          3.0        0.5        4          7          0         
SUB-164          3.0        0.5        4          7          0         
SUB-166          3.0        0.5        4          7          0         
SUB-168          3.0        0.5        4          7          0         
SUB-170          3.0        0.5        4          7          0         
SUB-172          3.0        0.5        4          7          0         
SUB-174          3.0        0.5        4          7          0         
SUB-176          3.0        0.5        4          7          0         
SUB-178          3.0        0.5        4          7          0         
SUB-18           3.0        0.5        4          7          0         
SUB-180          3.0        0.5        4          7          0         
SUB-182          3.0        0.5        4          7          0         
SUB-184          3.0        0.5        4          7          0         
SUB-186          3.0        0.5        4          7          0         
SUB-188          3.0        0.5        4          7          0         
SUB-190          3.0        0.5        4          7          0         
SUB-192          3.0        0.5        4          7          0         
SUB-194          3.0        0.5        4          7          0         
SUB-196          3.0        0.5        4          7          0         
SUB-198          3.0        0.5        4          7          0         
SUB-20           3.0        0.5        4          7          0         
SUB-200          3.0        0.5        4          7          0         
SUB-202          3.0        0.5        4          7          0         
SUB-204          3.0        0.5        4          7          0         
SUB-206          3.0        0.5        4          7          0         
SUB-208          3.0        0.5        4          7          0         
SUB-210          3.0        0.5        4          7          0         