; SWMM5 export of network NewReg from InfoWorks 4.0.3.8010
; Entire Network
[TITLE]

[OPTIONS]
FLOW_UNITS LPS
INFILTRATION HORTON
ALLOW_PONDING NO
[SUBCATCHMENTS]
; Name Raingage Outlet Area %Imperv Width Slope Clength
; Only numeric rainfall profiles are supported: 100yrDesignStorm set to -1
01N0001_1 -1 01N0001 1.700000 50.000000 76.200000 100.000000 0.000000
; Only numeric rainfall profiles are supported: 100yrDesignStorm set to -1
01N0003_1 -1 01N0003 6.190000 40.000000 137.200000 50.000000 0.000000
; Only numeric rainfall profiles are supported: 100yrDesignStorm set to -1
01N0005_1 -1 01N0005 1.460000 40.000000 76.200000 30.000000 0.000000
; Only numeric rainfall profiles are supported: 100yrDesignStorm set to -1
01N0007_1 -1 01N0007 5.630000 35.000000 106.700000 70.000000 0.000000
; Only numeric rainfall profiles are supported: 100yrDesignStorm set to -1
01N0008_1 -1 01N0008 2.840000 35.000000 106.700000 50.000000 0.000000
; Only numeric rainfall profiles are supported: 100yrDesignStorm set to -1
01N0009_1 -1 01N0009 1.780000 35.000000 91.400000 50.000000 0.000000
; Only numeric rainfall profiles are supported: 100yrDesignStorm set to -1
01N0010_1 -1 01N0010 4.130000 30.000000 152.400000 50.000000 0.000000
; Only numeric rainfall profiles are supported: 100yrDesignStorm set to -1
01N0011_1 -1 01N0011 2.830000 25.000000 91.400000 50.000000 0.000000
; Only numeric rainfall profiles are supported: 100yrDesignStorm set to -1
01N0015_1 -1 01N0015 3.670000 35.000000 152.400000 50.000000 0.000000
; Only numeric rainfall profiles are supported: 100yrDesignStorm set to -1
01N0017_1 -1 01N0017 0.690000 40.000000 91.400000 30.000000 0.000000
; Only numeric rainfall profiles are supported: 100yrDesignStorm set to -1
01N0018_1 -1 01N0018 2.390000 30.000000 152.400000 100.000000 0.000000
; Only numeric rainfall profiles are supported: 100yrDesignStorm set to -1
01N0019_1 -1 01N0019 3.050000 35.000000 106.700000 60.000000 0.000000
; Only numeric rainfall profiles are supported: 100yrDesignStorm set to -1
01N0021_1 -1 01N0021 0.530000 35.000000 91.400000 30.000000 0.000000
; Only numeric rainfall profiles are supported: 100yrDesignStorm set to -1
01N0022_1 -1 01N0022 2.100000 30.000000 106.700000 100.000000 0.000000
; Only numeric rainfall profiles are supported: 100yrDesignStorm set to -1
01N0024_1 -1 01N0024 2.390000 35.000000 91.400000 60.000000 0.000000
; Only numeric rainfall profiles are supported: 100yrDesignStorm set to -1
01N0027_1 -1 01N0027 0.490000 45.000000 76.200000 100.000000 0.000000
; Only numeric rainfall profiles are supported: 100yrDesignStorm set to -1
01N0028_1 -1 01N0028 2.230000 35.000000 91.400000 200.000000 0.000000
; Only numeric rainfall profiles are supported: 100yrDesignStorm set to -1
01N0033_1 -1 01N0033 2.910000 35.000000 121.900000 30.000000 0.000000
; Only numeric rainfall profiles are supported: 100yrDesignStorm set to -1
01N0034_1 -1 01N0034 4.780000 30.000000 182.900000 200.000000 0.000000
; Only numeric rainfall profiles are supported: 100yrDesignStorm set to -1
01N0035_1 -1 01N0035 0.970000 40.000000 152.400000 30.000000 0.000000
; Only numeric rainfall profiles are supported: 100yrDesignStorm set to -1
01N0036_1 -1 01N0036 3.560000 35.000000 136.700000 60.000000 0.000000
; Only numeric rainfall profiles are supported: 100yrDesignStorm set to -1
01N0037_1 -1 01N0037 7.610000 35.000000 136.700000 60.000000 0.000000
; Only numeric rainfall profiles are supported: 100yrDesignStorm set to -1
01N0039_1 -1 01N0039 5.670000 35.000000 152.400000 60.000000 0.000000
; Only numeric rainfall profiles are supported: 100yrDesignStorm set to -1
01N0040_1 -1 01N0040 1.170000 35.000000 106.700000 60.000000 0.000000
; Only numeric rainfall profiles are supported: 100yrDesignStorm set to -1
01N0042_1 -1 01N0042 6.560000 40.000000 198.100000 20.000000 0.000000
; Only numeric rainfall profiles are supported: 100yrDesignStorm set to -1
01N0043_1 -1 01N0043 1.900000 30.000000 91.400000 30.000000 0.000000
; Only numeric rainfall profiles are supported: 100yrDesignStorm set to -1
01N0044_1 -1 01N0044 2.670000 30.000000 137.200000 60.000000 0.000000
; Only numeric rainfall profiles are supported: 100yrDesignStorm set to -1
01N0045_1 -1 01N0045 5.670000 30.000000 213.400000 20.000000 0.000000
; Only numeric rainfall profiles are supported: 100yrDesignStorm set to -1
01N0049_1 -1 01N0049 9.790000 40.000000 182.900000 30.000000 0.000000
; Only numeric rainfall profiles are supported: 100yrDesignStorm set to -1
01N0050_1 -1 01N0050 9.670000 35.000000 259.100000 80.000000 0.000000
; Only numeric rainfall profiles are supported: 100yrDesignStorm set to -1
01N0051_1 -1 01N0051 0.360000 50.000000 61.000000 60.000000 0.000000
; Only numeric rainfall profiles are supported: 100yrDesignStorm set to -1
01N0068_1 -1 01N0068 6.390000 25.000000 182.900000 10.000000 0.000000
; Only numeric rainfall profiles are supported: 100yrDesignStorm set to -1
01N008A_1 -1 01N008A 2.840000 35.000000 106.700000 50.000000 0.000000
; Only numeric rainfall profiles are supported: 100yrDesignStorm set to -1
01N0092_1 -1 01N0092 2.230000 35.000000 106.700000 80.000000 0.000000
; Only numeric rainfall profiles are supported: 100yrDesignStorm set to -1
01N0093_1 -1 01N0093 0.650000 45.000000 76.200000 10.000000 0.000000
; Only numeric rainfall profiles are supported: 100yrDesignStorm set to -1
01N0094_1 -1 01N0094 3.800000 28.000000 106.700000 20.000000 0.000000
; Only numeric rainfall profiles are supported: 100yrDesignStorm set to -1
01N0096_1 -1 01N0096 0.490000 55.000000 61.000000 10.000000 0.000000
; Only numeric rainfall profiles are supported: 100yrDesignStorm set to -1
01N0097_1 -1 01N0097 3.720000 28.000000 91.400000 80.000000 0.000000
; Only numeric rainfall profiles are supported: 100yrDesignStorm set to -1
01N0098_1 -1 01N0098 3.070000 35.000000 136.700000 60.000000 0.000000
; Only numeric rainfall profiles are supported: 100yrDesignStorm set to -1
01N0099_1 -1 01N0099 5.910000 35.000000 152.400000 80.000000 0.000000
; Only numeric rainfall profiles are supported: 100yrDesignStorm set to -1
01N0101_1 -1 01N0101 2.750000 35.000000 106.700000 30.000000 0.000000
; Only numeric rainfall profiles are supported: 100yrDesignStorm set to -1
01N0102_1 -1 01N0102 4.170000 35.000000 121.900000 10.000000 0.000000
; Only numeric rainfall profiles are supported: 100yrDesignStorm set to -1
01N0103_1 -1 01N0103 3.200000 40.000000 106.700000 70.000000 0.000000
; Only numeric rainfall profiles are supported: 100yrDesignStorm set to -1
01N0104_1 -1 01N0104 0.810000 50.000000 106.700000 10.000000 0.000000
; Only numeric rainfall profiles are supported: 100yrDesignStorm set to -1
01N0105_1 -1 01N0105 0.530000 55.000000 61.000000 10.000000 0.000000
; Only numeric rainfall profiles are supported: 100yrDesignStorm set to -1
01N0106_1 -1 01N0106 0.690000 45.000000 76.200000 10.000000 0.000000
; Only numeric rainfall profiles are supported: 100yrDesignStorm set to -1
01N010A_1 -1 01N010A 4.130000 30.000000 152.400000 50.000000 0.000000
; Only numeric rainfall profiles are supported: 100yrDesignStorm set to -1
01N0110_1 -1 01N0110 0.730000 45.000000 76.200000 10.000000 0.000000
; Only numeric rainfall profiles are supported: 100yrDesignStorm set to -1
01N0111_1 -1 01N0111 6.230000 25.000000 106.700000 120.000000 0.000000
; Only numeric rainfall profiles are supported: 100yrDesignStorm set to -1
01N0112_1 -1 01N0112 0.400000 45.000000 61.000000 10.000000 0.000000
; Only numeric rainfall profiles are supported: 100yrDesignStorm set to -1
01N0113_1 -1 01N0113 6.480000 25.000000 106.700000 110.000000 0.000000
; Only numeric rainfall profiles are supported: 100yrDesignStorm set to -1
01N0114_1 -1 01N0114 3.440000 35.000000 91.400000 30.000000 0.000000
; Only numeric rainfall profiles are supported: 100yrDesignStorm set to -1
01N0115_1 -1 01N0115 1.700000 35.000000 106.700000 130.000000 0.000000
; Only numeric rainfall profiles are supported: 100yrDesignStorm set to -1
01N0116_1 -1 01N0116 0.400000 45.000000 61.000000 10.000000 0.000000
; Only numeric rainfall profiles are supported: 100yrDesignStorm set to -1
01N0117_1 -1 01N0117 5.300000 35.000000 106.700000 30.000000 0.000000
; Only numeric rainfall profiles are supported: 100yrDesignStorm set to -1
01N0118_1 -1 01N0118 7.000000 25.000000 112.800000 130.000000 0.000000
; Only numeric rainfall profiles are supported: 100yrDesignStorm set to -1
01N0119_1 -1 01N0119 0.450000 45.000000 73.200000 10.000000 0.000000
; Only numeric rainfall profiles are supported: 100yrDesignStorm set to -1
01N0120_1 -1 01N0120 5.140000 35.000000 106.700000 70.000000 0.000000
; Only numeric rainfall profiles are supported: 100yrDesignStorm set to -1
01N0121_1 -1 01N0121 6.110000 25.000000 103.600000 140.000000 0.000000
; Only numeric rainfall profiles are supported: 100yrDesignStorm set to -1
01N0122_1 -1 01N0122 1.500000 45.000000 121.900000 10.000000 0.000000
; Only numeric rainfall profiles are supported: 100yrDesignStorm set to -1
01N0123_1 -1 01N0123 7.410000 35.000000 152.400000 60.000000 0.000000
; Only numeric rainfall profiles are supported: 100yrDesignStorm set to -1
01N0124_1 -1 01N0124 9.510000 25.000000 152.400000 130.000000 0.000000
; Only numeric rainfall profiles are supported: 100yrDesignStorm set to -1
01N0126_1 -1 01N0126 0.530000 45.000000 73.200000 10.000000 0.000000
; Only numeric rainfall profiles are supported: 100yrDesignStorm set to -1
01N0127_1 -1 01N0127 6.720000 35.000000 146.300000 60.000000 0.000000
; Only numeric rainfall profiles are supported: 100yrDesignStorm set to -1
01N0128_1 -1 01N0128 10.600000 25.000000 161.500000 110.000000 0.000000
; Only numeric rainfall profiles are supported: 100yrDesignStorm set to -1
01N0129_1 -1 01N0129 0.690000 45.000000 76.200000 10.000000 0.000000
; Only numeric rainfall profiles are supported: 100yrDesignStorm set to -1
01N0130_1 -1 01N0130 8.010000 45.000000 106.700000 60.000000 0.000000
; Only numeric rainfall profiles are supported: 100yrDesignStorm set to -1
01N0131_1 -1 01N0131 3.720000 30.000000 97.500000 160.000000 0.000000
; Only numeric rainfall profiles are supported: 100yrDesignStorm set to -1
01N0132_1 -1 01N0132 0.730000 40.000000 91.400000 10.000000 0.000000
; Only numeric rainfall profiles are supported: 100yrDesignStorm set to -1
01N0133_1 -1 01N0133 3.120000 35.000000 91.400000 120.000000 0.000000
; Only numeric rainfall profiles are supported: 100yrDesignStorm set to -1
01N0139_1 -1 01N0139 2.020000 35.000000 140.200000 50.000000 0.000000
; Only numeric rainfall profiles are supported: 100yrDesignStorm set to -1
01N0150_1 -1 01N0150 3.440000 40.000000 137.200000 170.000000 0.000000
; Only numeric rainfall profiles are supported: 100yrDesignStorm set to -1
01N0151_1 -1 01N0151 2.190000 35.000000 76.200000 10.000000 0.000000
; Only numeric rainfall profiles are supported: 100yrDesignStorm set to -1
01N0152_1 -1 01N0152 4.170000 25.000000 106.700000 200.000000 0.000000
; Only numeric rainfall profiles are supported: 100yrDesignStorm set to -1
01N0153_1 -1 01N0153 4.010000 25.000000 91.400000 250.000000 0.000000
; Only numeric rainfall profiles are supported: 100yrDesignStorm set to -1
01N0154_1 -1 01N0154 3.160000 30.000000 182.900000 20.000000 0.000000
; Only numeric rainfall profiles are supported: 100yrDesignStorm set to -1
01N0155_1 -1 01N0155 0.730000 70.000000 76.200000 10.000000 0.000000
; Only numeric rainfall profiles are supported: 100yrDesignStorm set to -1
01N015A_1 -1 01N015A 3.670000 35.000000 152.400000 50.000000 0.000000
; Only numeric rainfall profiles are supported: 100yrDesignStorm set to -1
01N0174_1 -1 01N0174 5.280000 35.000000 521.500000 30.000000 0.000000
; Only numeric rainfall profiles are supported: 100yrDesignStorm set to -1
01N0177_1 -1 01N0177 0.530000 40.000000 70.100000 10.000000 0.000000
; Only numeric rainfall profiles are supported: 100yrDesignStorm set to -1
01N0178_1 -1 01N0178 3.280000 35.000000 103.600000 90.000000 0.000000
; Only numeric rainfall profiles are supported: 100yrDesignStorm set to -1
01N0182_1 -1 01N0182 0.610000 40.000000 76.200000 10.000000 0.000000
; Only numeric rainfall profiles are supported: 100yrDesignStorm set to -1
01N0183_1 -1 01N0183 3.120000 35.000000 100.600000 150.000000 0.000000
; Only numeric rainfall profiles are supported: 100yrDesignStorm set to -1
01N0184_1 -1 01N0184 1.340000 35.000000 103.600000 60.000000 0.000000
; Only numeric rainfall profiles are supported: 100yrDesignStorm set to -1
01N0188_1 -1 01N0188 0.810000 40.000000 85.300000 10.000000 0.000000
; Only numeric rainfall profiles are supported: 100yrDesignStorm set to -1
01N0189_1 -1 01N0189 3.280000 35.000000 97.500000 100.000000 0.000000
; Only numeric rainfall profiles are supported: 100yrDesignStorm set to -1
01N0190_1 -1 01N0190 0.610000 35.000000 82.300000 80.000000 0.000000
; Only numeric rainfall profiles are supported: 100yrDesignStorm set to -1
01N0191_1 -1 01N0191 1.780000 35.000000 91.400000 120.000000 0.000000
; Only numeric rainfall profiles are supported: 100yrDesignStorm set to -1
01N0192_1 -1 01N0192 0.530000 35.000000 61.000000 40.000000 0.000000
; Only numeric rainfall profiles are supported: 100yrDesignStorm set to -1
01N0193_1 -1 01N0193 1.940000 35.000000 91.400000 50.000000 0.000000
; Only numeric rainfall profiles are supported: 100yrDesignStorm set to -1
01N0194_1 -1 01N0194 1.460000 35.000000 91.400000 50.000000 0.000000
; Only numeric rainfall profiles are supported: 100yrDesignStorm set to -1
01N0195_1 -1 01N0195 0.530000 35.000000 70.100000 40.000000 0.000000
; Only numeric rainfall profiles are supported: 100yrDesignStorm set to -1
01N0196_1 -1 01N0196 2.020000 35.000000 106.700000 40.000000 0.000000
; Only numeric rainfall profiles are supported: 100yrDesignStorm set to -1
01N0197_1 -1 01N0197 1.500000 35.000000 106.700000 50.000000 0.000000
; Only numeric rainfall profiles are supported: 100yrDesignStorm set to -1
01N0198_1 -1 01N0198 0.650000 35.000000 76.200000 30.000000 0.000000
; Only numeric rainfall profiles are supported: 100yrDesignStorm set to -1
01N0199_1 -1 01N0199 1.700000 35.000000 76.200000 70.000000 0.000000
; Only numeric rainfall profiles are supported: 100yrDesignStorm set to -1
01N019A_1 -1 01N019A 3.050000 35.000000 106.700000 60.000000 0.000000
; Only numeric rainfall profiles are supported: 100yrDesignStorm set to -1
01N0200_1 -1 01N0200 1.380000 35.000000 91.400000 60.000000 0.000000
; Only numeric rainfall profiles are supported: 100yrDesignStorm set to -1
01N0202_1 -1 01N0202 0.690000 40.000000 79.200000 10.000000 0.000000
; Only numeric rainfall profiles are supported: 100yrDesignStorm set to -1
01N0203_1 -1 01N0203 4.980000 35.000000 103.600000 30.000000 0.000000
; Only numeric rainfall profiles are supported: 100yrDesignStorm set to -1
01N0204_1 -1 01N0204 2.390000 35.000000 121.900000 20.000000 0.000000
; Only numeric rainfall profiles are supported: 100yrDesignStorm set to -1
01N0208_1 -1 01N0208 0.490000 35.000000 70.100000 60.000000 0.000000
; Only numeric rainfall profiles are supported: 100yrDesignStorm set to -1
01N0209_1 -1 01N0209 1.620000 35.000000 82.300000 90.000000 0.000000
; Only numeric rainfall profiles are supported: 100yrDesignStorm set to -1
01N0210_1 -1 01N0210 1.340000 35.000000 97.500000 110.000000 0.000000
; Only numeric rainfall profiles are supported: 100yrDesignStorm set to -1
01N0211_1 -1 01N0211 0.450000 35.000000 76.200000 50.000000 0.000000
; Only numeric rainfall profiles are supported: 100yrDesignStorm set to -1
01N0212_1 -1 01N0212 1.980000 35.000000 106.700000 90.000000 0.000000
; Only numeric rainfall profiles are supported: 100yrDesignStorm set to -1
01N0213_1 -1 01N0213 1.420000 35.000000 106.700000 160.000000 0.000000
; Only numeric rainfall profiles are supported: 100yrDesignStorm set to -1
01N0217_1 -1 01N0217 0.530000 35.000000 70.100000 40.000000 0.000000
; Only numeric rainfall profiles are supported: 100yrDesignStorm set to -1
01N0218_1 -1 01N0218 1.940000 35.000000 94.500000 70.000000 0.000000
; Only numeric rainfall profiles are supported: 100yrDesignStorm set to -1
01N0219_1 -1 01N0219 1.340000 35.000000 85.300000 130.000000 0.000000
; Only numeric rainfall profiles are supported: 100yrDesignStorm set to -1
01N0220_1 -1 01N0220 0.610000 40.000000 79.200000 10.000000 0.000000
; Only numeric rainfall profiles are supported: 100yrDesignStorm set to -1
01N0222_1 -1 01N0222 3.360000 35.000000 103.600000 120.000000 0.000000
; Only numeric rainfall profiles are supported: 100yrDesignStorm set to -1
01N0227_1 -1 01N0227 1.050000 40.000000 76.200000 10.000000 0.000000
; Only numeric rainfall profiles are supported: 100yrDesignStorm set to -1
01N0229_1 -1 01N0229 5.180000 35.000000 182.900000 150.000000 0.000000
; Only numeric rainfall profiles are supported: 100yrDesignStorm set to -1
01N0233_1 -1 01N0233 0.970000 40.000000 109.700000 10.000000 0.000000
; Only numeric rainfall profiles are supported: 100yrDesignStorm set to -1
01N0237_1 -1 01N0237 0.570000 40.000000 91.400000 10.000000 0.000000
; Only numeric rainfall profiles are supported: 100yrDesignStorm set to -1
01N0240_1 -1 01N0240 5.300000 35.000000 137.200000 180.000000 0.000000
; Only numeric rainfall profiles are supported: 100yrDesignStorm set to -1
01N0245_1 -1 01N0245 0.610000 40.000000 85.300000 10.000000 0.000000
; Only numeric rainfall profiles are supported: 100yrDesignStorm set to -1
01N0248_1 -1 01N0248 3.440000 35.000000 91.400000 150.000000 0.000000
; Only numeric rainfall profiles are supported: 100yrDesignStorm set to -1
01N0249_1 -1 01N0249 0.610000 40.000000 76.200000 10.000000 0.000000
; Only numeric rainfall profiles are supported: 100yrDesignStorm set to -1
01N024A_1 -1 01N024A 2.390000 35.000000 91.400000 60.000000 0.000000
; Only numeric rainfall profiles are supported: 100yrDesignStorm set to -1
01N0250_1 -1 01N0250 3.240000 35.000000 97.500000 160.000000 0.000000
; Only numeric rainfall profiles are supported: 100yrDesignStorm set to -1
01N0254_1 -1 01N0254 0.610000 40.000000 85.300000 10.000000 0.000000
; Only numeric rainfall profiles are supported: 100yrDesignStorm set to -1
01N0257_1 -1 01N0257 6.720000 35.000000 112.800000 40.000000 0.000000
; Only numeric rainfall profiles are supported: 100yrDesignStorm set to -1
01N0258_1 -1 01N0258 0.690000 35.000000 76.200000 50.000000 0.000000
; Only numeric rainfall profiles are supported: 100yrDesignStorm set to -1
01N0259_1 -1 01N0259 3.080000 35.000000 103.600000 50.000000 0.000000
; Only numeric rainfall profiles are supported: 100yrDesignStorm set to -1
01N0262_1 -1 01N0262 3.520000 35.000000 103.600000 50.000000 0.000000
; Only numeric rainfall profiles are supported: 100yrDesignStorm set to -1
01N0263_1 -1 01N0263 0.650000 35.000000 76.200000 40.000000 0.000000
; Only numeric rainfall profiles are supported: 100yrDesignStorm set to -1
01N0264_1 -1 01N0264 3.760000 35.000000 106.700000 40.000000 0.000000
; Only numeric rainfall profiles are supported: 100yrDesignStorm set to -1
01N0265_1 -1 01N0265 2.140000 35.000000 97.500000 140.000000 0.000000
; Only numeric rainfall profiles are supported: 100yrDesignStorm set to -1
01N0266_1 -1 01N0266 0.690000 35.000000 76.200000 40.000000 0.000000
; Only numeric rainfall profiles are supported: 100yrDesignStorm set to -1
01N0267_1 -1 01N0267 2.060000 35.000000 97.500000 80.000000 0.000000
; Only numeric rainfall profiles are supported: 100yrDesignStorm set to -1
01N0270_1 -1 01N0270 3.200000 35.000000 106.700000 60.000000 0.000000
; Only numeric rainfall profiles are supported: 100yrDesignStorm set to -1
01N0271_1 -1 01N0271 0.970000 40.000000 76.200000 70.000000 0.000000
; Only numeric rainfall profiles are supported: 100yrDesignStorm set to -1
01N0275_1 -1 01N0275 3.560000 35.000000 103.600000 30.000000 0.000000
; Only numeric rainfall profiles are supported: 100yrDesignStorm set to -1
01N0277_1 -1 01N0277 1.940000 35.000000 103.600000 70.000000 0.000000
; Only numeric rainfall profiles are supported: 100yrDesignStorm set to -1
01N0280_1 -1 01N0280 0.770000 35.000000 85.300000 10.000000 0.000000
; Only numeric rainfall profiles are supported: 100yrDesignStorm set to -1
01N0281_1 -1 01N0281 1.860000 35.000000 103.600000 70.000000 0.000000
; Only numeric rainfall profiles are supported: 100yrDesignStorm set to -1
01N0282_1 -1 01N0282 1.940000 35.000000 103.600000 120.000000 0.000000
; Only numeric rainfall profiles are supported: 100yrDesignStorm set to -1
01N0283_1 -1 01N0283 0.770000 35.000000 76.200000 30.000000 0.000000
; Only numeric rainfall profiles are supported: 100yrDesignStorm set to -1
01N0284_1 -1 01N0284 1.860000 35.000000 106.700000 40.000000 0.000000
; Only numeric rainfall profiles are supported: 100yrDesignStorm set to -1
01N0285_1 -1 01N0285 3.930000 35.000000 106.700000 120.000000 0.000000
; Only numeric rainfall profiles are supported: 100yrDesignStorm set to -1
01N0286_1 -1 01N0286 0.530000 35.000000 76.200000 20.000000 0.000000
; Only numeric rainfall profiles are supported: 100yrDesignStorm set to -1
01N0287_1 -1 01N0287 1.250000 35.000000 67.100000 60.000000 0.000000
; Only numeric rainfall profiles are supported: 100yrDesignStorm set to -1
01N0288_1 -1 01N0288 3.240000 35.000000 85.300000 60.000000 0.000000
; Only numeric rainfall profiles are supported: 100yrDesignStorm set to -1
01N0289_1 -1 01N0289 0.850000 35.000000 36.600000 120.000000 0.000000
; Only numeric rainfall profiles are supported: 100yrDesignStorm set to -1
01N0291_1 -1 01N0291 0.570000 40.000000 73.200000 10.000000 0.000000
; Only numeric rainfall profiles are supported: 100yrDesignStorm set to -1
01N0292_1 -1 01N0292 4.010000 35.000000 97.500000 180.000000 0.000000
; Only numeric rainfall profiles are supported: 100yrDesignStorm set to -1
01N0293_1 -1 01N0293 3.560000 35.000000 112.800000 130.000000 0.000000
; Only numeric rainfall profiles are supported: 100yrDesignStorm set to -1
01N0294_1 -1 01N0294 0.570000 40.000000 76.200000 10.000000 0.000000
; Only numeric rainfall profiles are supported: 100yrDesignStorm set to -1
01N0295_1 -1 01N0295 4.010000 35.000000 97.500000 170.000000 0.000000
; Only numeric rainfall profiles are supported: 100yrDesignStorm set to -1
01N0296_1 -1 01N0296 3.480000 35.000000 97.500000 180.000000 0.000000
; Only numeric rainfall profiles are supported: 100yrDesignStorm set to -1
01N0297_1 -1 01N0297 0.490000 40.000000 61.000000 10.000000 0.000000
; Only numeric rainfall profiles are supported: 100yrDesignStorm set to -1
01N0298_1 -1 01N0298 3.440000 35.000000 91.400000 180.000000 0.000000
; Only numeric rainfall profiles are supported: 100yrDesignStorm set to -1
01N0300_1 -1 01N0300 2.670000 35.000000 88.400000 130.000000 0.000000
; Only numeric rainfall profiles are supported: 100yrDesignStorm set to -1
01N0301_1 -1 01N0301 1.340000 40.000000 61.000000 10.000000 0.000000
; Only numeric rainfall profiles are supported: 100yrDesignStorm set to -1
01N0304_1 -1 01N0304 4.250000 35.000000 76.200000 40.000000 0.000000
; Only numeric rainfall profiles are supported: 100yrDesignStorm set to -1
01N0305_1 -1 01N0305 0.810000 35.000000 61.000000 180.000000 0.000000
; Only numeric rainfall profiles are supported: 100yrDesignStorm set to -1
01N0306_1 -1 01N0306 1.050000 35.000000 61.000000 90.000000 0.000000
; Only numeric rainfall profiles are supported: 100yrDesignStorm set to -1
01N0307_1 -1 01N0307 1.050000 35.000000 76.200000 60.000000 0.000000
; Only numeric rainfall profiles are supported: 100yrDesignStorm set to -1
01N0308_1 -1 01N0308 1.050000 35.000000 76.200000 110.000000 0.000000
; Only numeric rainfall profiles are supported: 100yrDesignStorm set to -1
01N0324_1 -1 01N0324 1.860000 35.000000 54.900000 70.000000 0.000000
; Only numeric rainfall profiles are supported: 100yrDesignStorm set to -1
01N0325_1 -1 01N0325 4.530000 40.000000 243.800000 10.000000 0.000000
; Only numeric rainfall profiles are supported: 100yrDesignStorm set to -1
01N0327_1 -1 01N0327 2.990000 35.000000 121.900000 70.000000 0.000000
; Only numeric rainfall profiles are supported: 100yrDesignStorm set to -1
01N0328_1 -1 01N0328 4.370000 35.000000 182.900000 60.000000 0.000000
; Only numeric rainfall profiles are supported: 100yrDesignStorm set to -1
01N032A_1 -1 01N032A 3.670000 40.000000 106.700000 30.000000 0.000000
; Only numeric rainfall profiles are supported: 100yrDesignStorm set to -1
01N032B_1 -1 01N032B 3.670000 40.000000 106.700000 30.000000 0.000000
; Only numeric rainfall profiles are supported: 100yrDesignStorm set to -1
01N0330_1 -1 01N0330 0.810000 40.000000 82.300000 10.000000 0.000000
; Only numeric rainfall profiles are supported: 100yrDesignStorm set to -1
01N0332_1 -1 01N0332 6.230000 35.000000 152.400000 100.000000 0.000000
; Only numeric rainfall profiles are supported: 100yrDesignStorm set to -1
01N0333_1 -1 01N0333 1.250000 40.000000 106.700000 10.000000 0.000000
; Only numeric rainfall profiles are supported: 100yrDesignStorm set to -1
01N0345_1 -1 01N0345 0.650000 40.000000 79.200000 10.000000 0.000000
; Only numeric rainfall profiles are supported: 100yrDesignStorm set to -1
01N0351_1 -1 01N0351 3.560000 35.000000 115.800000 130.000000 0.000000
; Only numeric rainfall profiles are supported: 100yrDesignStorm set to -1
01N0372_1 -1 01N0372 0.610000 40.000000 76.200000 20.000000 0.000000
; Only numeric rainfall profiles are supported: 100yrDesignStorm set to -1
01N0373_1 -1 01N0373 4.780000 35.000000 112.800000 70.000000 0.000000
; Only numeric rainfall profiles are supported: 100yrDesignStorm set to -1
01N0374_1 -1 01N0374 0.530000 40.000000 76.200000 10.000000 0.000000
; Only numeric rainfall profiles are supported: 100yrDesignStorm set to -1
01N0376_1 -1 01N0376 4.690000 35.000000 106.700000 70.000000 0.000000
; Only numeric rainfall profiles are supported: 100yrDesignStorm set to -1
01N0377_1 -1 01N0377 0.570000 40.000000 76.200000 40.000000 0.000000
; Only numeric rainfall profiles are supported: 100yrDesignStorm set to -1
01N0378_1 -1 01N0378 3.840000 35.000000 91.400000 40.000000 0.000000
; Only numeric rainfall profiles are supported: 100yrDesignStorm set to -1
01N0379_1 -1 01N0379 4.210000 35.000000 100.600000 80.000000 0.000000
; Only numeric rainfall profiles are supported: 100yrDesignStorm set to -1
01N0380_1 -1 01N0380 0.450000 40.000000 61.000000 20.000000 0.000000
; Only numeric rainfall profiles are supported: 100yrDesignStorm set to -1
01N0381_1 -1 01N0381 0.040000 40.000000 0.300000 30.000000 0.000000
; Only numeric rainfall profiles are supported: 100yrDesignStorm set to -1
01N0382_1 -1 01N0382 0.890000 35.000000 91.400000 150.000000 0.000000
; Only numeric rainfall profiles are supported: 100yrDesignStorm set to -1
01N0383_1 -1 01N0383 1.580000 35.000000 106.700000 50.000000 0.000000
; Only numeric rainfall profiles are supported: 100yrDesignStorm set to -1
01N0384_1 -1 01N0384 14.400000 35.000000 125.000000 50.000000 0.000000
; Only numeric rainfall profiles are supported: 100yrDesignStorm set to -1
01N0386_1 -1 01N0386 3.360000 35.000000 115.800000 0.000000 0.000000
; Only numeric rainfall profiles are supported: 100yrDesignStorm set to -1
01N0387_1 -1 01N0387 2.060000 35.000000 79.200000 0.000000 0.000000
; Only numeric rainfall profiles are supported: 100yrDesignStorm set to -1
01N0388_1 -1 01N0388 1.170000 35.000000 121.900000 40.000000 0.000000
; Only numeric rainfall profiles are supported: 100yrDesignStorm set to -1
01N0389_1 -1 01N0389 0.690000 35.000000 76.200000 90.000000 0.000000
; Only numeric rainfall profiles are supported: 100yrDesignStorm set to -1
01N0391_1 -1 01N0391 5.540000 35.000000 152.400000 100.000000 0.000000
; Only numeric rainfall profiles are supported: 100yrDesignStorm set to -1
01N0392_1 -1 01N0392 4.170000 35.000000 140.200000 60.000000 0.000000
; Only numeric rainfall profiles are supported: 100yrDesignStorm set to -1
01N0393_1 -1 01N0393 1.300000 35.000000 121.900000 80.000000 0.000000
; Only numeric rainfall profiles are supported: 100yrDesignStorm set to -1
01N0396_1 -1 01N0396 2.630000 35.000000 182.900000 100.000000 0.000000
; Only numeric rainfall profiles are supported: 100yrDesignStorm set to -1
01N0397_1 -1 01N0397 0.730000 35.000000 85.300000 10.000000 0.000000
; Only numeric rainfall profiles are supported: 100yrDesignStorm set to -1
01N0398_1 -1 01N0398 4.170000 35.000000 109.700000 90.000000 0.000000
; Only numeric rainfall profiles are supported: 100yrDesignStorm set to -1
01N0399_1 -1 01N0399 6.350000 35.000000 228.600000 50.000000 0.000000
; Only numeric rainfall profiles are supported: 100yrDesignStorm set to -1
01N0400_1 -1 01N0400 1.940000 35.000000 121.900000 50.000000 0.000000
; Only numeric rainfall profiles are supported: 100yrDesignStorm set to -1
01N0401_1 -1 01N0401 2.710000 35.000000 97.500000 70.000000 0.000000
; Only numeric rainfall profiles are supported: 100yrDesignStorm set to -1
01N0402_1 -1 01N0402 0.610000 35.000000 76.200000 60.000000 0.000000
; Only numeric rainfall profiles are supported: 100yrDesignStorm set to -1
01N0407_1 -1 01N0407 2.510000 35.000000 97.500000 40.000000 0.000000
; Only numeric rainfall profiles are supported: 100yrDesignStorm set to -1
01N0424_1 -1 01N0424 5.500000 35.000000 152.400000 50.000000 0.000000
; Only numeric rainfall profiles are supported: 100yrDesignStorm set to -1
01N0425_1 -1 01N0425 3.360000 35.000000 137.200000 90.000000 0.000000
; Only numeric rainfall profiles are supported: 100yrDesignStorm set to -1
01N0426_1 -1 01N0426 2.230000 35.000000 106.700000 30.000000 0.000000
; Only numeric rainfall profiles are supported: 100yrDesignStorm set to -1
01N0427_1 -1 01N0427 6.300000 35.000000 91.400000 40.000000 0.000000
; Only numeric rainfall profiles are supported: 100yrDesignStorm set to -1
01N0428_1 -1 01N0428 1.220000 35.000000 167.600000 30.000000 0.000000
; Only numeric rainfall profiles are supported: 100yrDesignStorm set to -1
01N0556_1 -1 01N0556 3.680000 35.000000 106.700000 150.000000 0.000000
; Only numeric rainfall profiles are supported: 100yrDesignStorm set to -1