[TITLE]
;;Project Title/Notes

[OPTIONS]
;;Option             Value
FLOW_UNITS           CFS
INFILTRATION         HORTON
FLOW_ROUTING         DYNWAVE
LINK_OFFSETS         DEPTH
MIN_SLOPE            0
ALLOW_PONDING        YES
SKIP_STEADY_STATE    NO

START_DATE           01/01/2002
START_TIME           00:00:00
REPORT_START_DATE    01/01/2002
REPORT_START_TIME    00:00:00
END_DATE             01/01/2002
END_TIME             06:00:00
SWEEP_START          01/01
SWEEP_END            12/31
DRY_DAYS             5.000000
REPORT_STEP          00:01:00
WET_STEP             00:01:00
DRY_STEP             01:00:00
ROUTING_STEP         0:00:10 

INERTIAL_DAMPING     NONE
NORMAL_FLOW_LIMITED  SLOPE
FORCE_MAIN_EQUATION  H-W
VARIABLE_STEP        0.75
LENGTHENING_STEP     10
MIN_SURFAREA         12.557
MAX_TRIALS           8
HEAD_TOLERANCE       0.005000
SYS_FLOW_TOL         5
LAT_FLOW_TOL         5
MINIMUM_STEP         0
THREADS              1

[EVAPORATION]
;;Data Source    Parameters
;;-------------- ----------------
CONSTANT         0.0
DRY_ONLY         NO

[RAINGAGES]
;;Name           Format    Interval SCF      Source    
;;-------------- --------- ------ ------ ----------
; New Raingage
RAINGAGE-1       VOLUME    0.083333 1.000000 TIMESERIES 100-YEAR        

[SUBCATCHMENTS]
;;Name           Rain Gage        Outlet           Area     %Imperv  Width    %Slope   CurbLen  SnowPack        
;;-------------- ---------------- ---------------- -------- -------- -------- -------- -------- ----------------
SUB-100          RAINGAGE-1       JCT-638          0.782752 51.240000 1704.900000 2.650000 0.000000                 
SUB-102          RAINGAGE-1       JCT-410          0.938098 35.530000 2043.200000 0.940000 0.000000                 
SUB-104          RAINGAGE-1       JCT-414          0.476804 55.820000 1038.500000 2.513014 0.000000                 
SUB-106          RAINGAGE-1       JCT-418          0.566529 54.360000 1233.800000 1.767584 0.000000                 
SUB-108          RAINGAGE-1       JCT-640          2.963058 31.470000 763.700000 3.707000 0.000000                 
SUB-110          RAINGAGE-1       JCT-632          1.424993 5.120000 320.000000 8.989000 0.000000                 
SUB-112          RAINGAGE-1       SUB-100          1.179986 5.770000 192.500000 5.326000 0.000000                 
SUB-114          RAINGAGE-1       JCT-100          1.036538 45.310000 403.300000 2.266000 0.000000                 
SUB-116          RAINGAGE-1       JCT-244          1.327939 38.510000 264.100000 2.731000 0.000000                 
SUB-118          RAINGAGE-1       SUB-116          1.635328 10.200000 221.000000 0.424701 0.000000                 
SUB-120          RAINGAGE-1       JCT-454          1.485623 34.470000 530.800000 2.131560 0.000000                 
SUB-122          RAINGAGE-1       JCT-516          2.346423 42.450000 1057.400000 2.075530 0.000000                 
SUB-124          RAINGAGE-1       JCT-520          1.230983 55.040000 355.100000 2.257000 0.000000                 
SUB-126          RAINGAGE-1       JCT-628          1.520253 7.850000 209.500000 5.991000 0.000000                 
SUB-128          RAINGAGE-1       JCT-108          1.202139 36.320000 256.700000 2.247000 0.000000                 
SUB-130          RAINGAGE-1       JCT-252          0.943820 48.500000 432.800000 4.192000 0.000000                 
SUB-132          RAINGAGE-1       JCT-260          0.633621 58.510000 224.500000 2.961000 0.000000                 
SUB-134          RAINGAGE-1       JCT-264          1.455016 45.140000 503.000000 3.982000 0.000000                 
SUB-136          RAINGAGE-1       SUB-134          2.123447 5.370000 266.500000 0.591000 0.000000                 
SUB-138          RAINGAGE-1       JCT-282          1.716207 48.940000 429.600000 2.961000 0.000000                 
SUB-140          RAINGAGE-1       JCT-448          1.716580 53.430000 598.300000 2.346000 0.000000                 
SUB-142          RAINGAGE-1       JCT-456          1.741495 51.890000 642.700000 3.237000 0.000000                 
SUB-144          RAINGAGE-1       JCT-464          1.514743 55.120000 559.300000 2.360000 0.000000                 
SUB-146          RAINGAGE-1       JCT-472          2.274265 48.930000 524.100000 2.991000 0.000000                 
SUB-148          RAINGAGE-1       JCT-476          0.821623 61.450000 511.500000 2.485000 0.000000                 
SUB-150          RAINGAGE-1       JCT-484          1.691068 48.100000 391.800000 2.738000 0.000000                 
SUB-152          RAINGAGE-1       JCT-548          1.200013 52.810000 373.400000 2.875000 0.000000                 
SUB-154          RAINGAGE-1       JCT-536          0.854263 60.110000 465.000000 2.348000 0.000000                 
SUB-156          RAINGAGE-1       JCT-540          1.612675 36.530000 245.700000 2.909000 0.000000                 
SUB-158          RAINGAGE-1       JCT-524          0.303563 75.930000 331.100000 2.307000 0.000000                 
SUB-160          RAINGAGE-1       JCT-528          0.393483 79.910000 342.400000 2.369000 0.000000                 
SUB-162          RAINGAGE-1       JCT-112          1.693698 29.000000 300.000000 2.366000 0.000000                 
SUB-164          RAINGAGE-1       JCT-272          0.735448 50.830000 228.700000 3.330000 0.000000                 
SUB-166          RAINGAGE-1       JCT-280          1.604452 51.280000 462.700000 4.421000 0.000000                 
SUB-168          RAINGAGE-1       SUB-166          1.016287 21.880000 197.600000 1.149000 0.000000                 
SUB-170          RAINGAGE-1       JCT-624          1.551255 4.870000 308.500000 7.778000 0.000000                 
SUB-172          RAINGAGE-1       JCT-120          1.855080 21.020000 206.100000 2.148000 0.000000                 
SUB-174          RAINGAGE-1       JCT-124          2.964685 15.350000 280.800000 2.914676 0.000000                 
SUB-176          RAINGAGE-1       STOR-14          1.363855 33.740000 250.700000 4.321000 0.000000                 
SUB-178          RAINGAGE-1       JCT-288          0.861578 66.250000 708.500000 2.905000 0.000000                 
SUB-180          RAINGAGE-1       JCT-290          2.538467 49.980000 624.600000 3.086000 0.000000                 
SUB-182          RAINGAGE-1       JCT-424          1.871288 56.420000 463.100000 2.501000 0.000000                 
SUB-184          RAINGAGE-1       JCT-412          0.550298 74.600000 557.200000 2.507000 0.000000                 
SUB-186          RAINGAGE-1       JCT-416          0.532791 71.860000 266.900000 2.447000 0.000000                 
SUB-188          RAINGAGE-1       JCT-428          0.208400 60.640000 232.300000 2.161000 0.000000                 
SUB-190          RAINGAGE-1       JCT-436          3.737772 30.770000 306.100000 2.555000 0.000000                 
SUB-192          RAINGAGE-1       JCT-500          0.758846 65.840000 459.200000 2.530000 0.000000                 
SUB-194          RAINGAGE-1       JCT-488          2.985086 49.080000 677.200000 2.604000 0.000000                 
SUB-196          RAINGAGE-1       JCT-532          0.617290 55.050000 225.900000 2.174000 0.000000                 
SUB-198          RAINGAGE-1       JCT-678          1.771799 18.300000 857.600000 8.581978 0.000000                 
SUB-200          RAINGAGE-1       JCT-644          3.272417 20.410000 510.900000 0.555659 0.000000                 
SUB-202          RAINGAGE-1       JCT-552          0.538343 65.790000 366.200000 2.289000 0.000000                 
SUB-204          RAINGAGE-1       JCT-682          0.826702 15.440000 545.800000 8.153213 0.000000                 
SUB-206          RAINGAGE-1       JCT-686          2.000256 8.370000 176.700000 2.434799 0.000000                 
SUB-208          RAINGAGE-1       JCT-620          1.349003 5.290000 166.000000 6.500000 0.000000                 
SUB-210          RAINGAGE-1       JCT-140          2.264394 21.930000 265.800000 4.027226 0.000000                 
SUB-212          RAINGAGE-1       JCT-132          1.331637 37.440000 408.600000 3.013863 0.000000                 
SUB-214          RAINGAGE-1       JCT-144          1.561262 19.540000 160.700000 4.367000 0.000000                 
SUB-216          RAINGAGE-1       JCT-300          3.421705 38.260000 616.000000 5.239523 0.000000                 
SUB-218          RAINGAGE-1       JCT-312          2.515122 50.470000 936.400000 2.720760 0.000000                 
SUB-220          RAINGAGE-1       JCT-320          2.119562 51.240000 756.900000 2.454000 0.000000                 
SUB-222          RAINGAGE-1       JCT-304          2.042487 27.170000 293.600000 4.103905 0.000000                 
SUB-224          RAINGAGE-1       STOR-44          3.671602 14.610000 238.700000 2.141817 0.000000                 
SUB-226          RAINGAGE-1       JCT-324          1.945175 19.960000 182.600000 2.107132 0.000000                 
SUB-228          RAINGAGE-1       JCT-444          0.472243 56.210000 130.100000 2.173000 0.000000                 
SUB-230          RAINGAGE-1       JCT-504          0.671871 53.740000 230.500000 2.751000 0.000000                 
SUB-232          RAINGAGE-1       JCT-492          0.268688 52.230000 126.000000 3.281000 0.000000                 
SUB-234          RAINGAGE-1       JCT-554          0.424766 57.290000 162.400000 2.832604 0.000000                 
SUB-236          RAINGAGE-1       JCT-556          1.147263 44.440000 351.900000 2.566296 0.000000                 
SUB-238          RAINGAGE-1       JCT-508          0.891326 55.460000 331.700000 2.590756 0.000000                 
SUB-240          RAINGAGE-1       JCT-564          0.598801 65.840000 414.200000 2.557270 0.000000                 
SUB-242          RAINGAGE-1       JCT-572          3.187375 38.180000 631.000000 3.726503 0.000000                 
SUB-244          RAINGAGE-1       JCT-570          0.861436 40.350000 468.800000 2.846404 0.000000                 
SUB-246          RAINGAGE-1       JCT-596          2.671604 48.650000 619.100000 2.996821 0.000000                 
SUB-248          RAINGAGE-1       JCT-580          0.958162 68.320000 587.800000 2.684000 0.000000                 
SUB-250          RAINGAGE-1       JCT-616          0.685162 8.490000 201.600000 9.316000 0.000000                 
SUB-252          RAINGAGE-1       JCT-152          1.463245 34.600000 264.400000 3.810000 0.000000                 
SUB-254          RAINGAGE-1       JCT-336          2.874741 39.930000 711.600000 2.661000 0.000000                 
SUB-256          RAINGAGE-1       JCT-340          1.873291 44.200000 410.000000 2.879000 0.000000                 
SUB-258          RAINGAGE-1       JCT-160          2.983614 17.930000 373.500000 5.521000 0.000000                 
SUB-260          RAINGAGE-1       JCT-164          1.540933 23.220000 154.000000 6.408000 0.000000                 
SUB-262          RAINGAGE-1       JCT-368          1.273520 49.600000 340.500000 2.643553 0.000000                 
SUB-264          RAINGAGE-1       JCT-352          0.917336 61.860000 644.300000 2.275000 0.000000                 
SUB-266          RAINGAGE-1       JCT-356          0.986963 59.780000 544.200000 2.500000 0.000000                 
SUB-268          RAINGAGE-1       JCT-344          1.666141 27.110000 290.300000 3.444000 0.000000                 
SUB-270          RAINGAGE-1       JCT-600          0.960642 68.580000 367.200000 2.729819 0.000000                 
SUB-272          RAINGAGE-1       JCT-392          3.026590 29.550000 867.500000 4.435710 0.000000                 
SUB-274          RAINGAGE-1       JCT-592          0.835831 50.050000 179.400000 2.765215 0.000000                 
SUB-276          RAINGAGE-1       JCT-576          2.009370 48.650000 583.000000 2.550566 0.000000                 
SUB-278          RAINGAGE-1       JCT-574          1.002217 36.270000 715.500000 4.070794 0.000000                 
SUB-280          RAINGAGE-1       JCT-612          0.118135 2.000000 122.400000 15.132000 0.000000                 
SUB-282          RAINGAGE-1       JCT-168          2.010701 31.040000 320.900000 5.062373 0.000000                 
SUB-284          RAINGAGE-1       JCT-372          2.185519 34.140000 247.300000 2.571988 0.000000                 
SUB-288          RAINGAGE-1       JCT-380          0.761889 57.130000 269.900000 2.568000 0.000000                 
SUB-290          RAINGAGE-1       JCT-388          1.517721 47.770000 403.200000 2.942000 0.000000                 
SUB-292          RAINGAGE-1       JCT-364          0.451225 56.320000 165.100000 3.195221 0.000000                 
SUB-294          RAINGAGE-1       JCT-608          0.048460 2.000000 232.300000 19.703000 0.000000                 
SUB-296          RAINGAGE-1       JCT-604          0.048144 2.000000 261.400000 19.255000 0.000000                 
SUB-298          RAINGAGE-1       JCT-172          4.985026 19.360000 468.000000 6.773038 0.000000                 
SUB-300          RAINGAGE-1       SUB-302          2.178303 2.000000 605.600000 6.600000 0.000000                 
SUB-302          RAINGAGE-1       JCT-180          2.506736 22.740000 400.000000 3.623000 0.000000                 
SUB-304          RAINGAGE-1       JCT-188          0.549987 40.330000 311.100000 2.729000 0.000000                 
SUB-306          RAINGAGE-1       JCT-196          0.815863 41.740000 245.100000 3.784000 0.000000                 
SUB-308          RAINGAGE-1       JCT-208          0.454651 57.050000 367.000000 2.418000 0.000000                 
SUB-310          RAINGAGE-1       JCT-212          2.114632 33.090000 568.700000 3.876895 0.000000                 
SUB-312          RAINGAGE-1       JCT-220          0.493021 65.820000 383.500000 3.215000 0.000000                 
SUB-314          RAINGAGE-1       JCT-228          0.429459 73.950000 322.200000 3.353413 0.000000                 
SUB-316          RAINGAGE-1       JCT-232          0.322223 70.440000 452.500000 4.129794 0.000000                 
SUB-318          RAINGAGE-1       STOR-42          0.347031 43.240000 72.000000 3.765747 0.000000                 
SUB-320          RAINGAGE-1       JCT-577          0.415918 46.420000 155.000000 4.491037 0.000000                 
SUB-322          RAINGAGE-1       JCT-240          0.231966 44.170000 163.000000 4.204817 0.000000                 
SUB-324          RAINGAGE-1       JCT-192          0.305021 70.980000 302.000000 2.869000 0.000000                 
SUB-326          RAINGAGE-1       JCT-224          0.570835 68.530000 460.600000 2.919000 0.000000                 
SUB-328          RAINGAGE-1       JCT-648          2.215210 12.050000 771.900000 9.862198 0.000000                 
SUB-330          RAINGAGE-1       STOR-10          5.999754 2.000000 1675.000000 9.608618 0.000000                 
SUB-332          RAINGAGE-1       JCT-242          0.280437 50.000000 235.000000 6.437428 0.000000                 
SUB-333          RAINGAGE-1       JCT-648          2.508283 2.000000 223.000000 3.870000 0.000000                 
SUB-334          RAINGAGE-1       STOR-10          8.415932 2.000000 474.000000 3.870000 0.000000                 
SUB-335          RAINGAGE-1       OFALL-26         1.836668 2.000000 220.000000 3.870000 0.000000                 
SUB-336          RAINGAGE-1       JCT-243          6.950737 5.080000 189.750000 3.760000 0.000000                 
SUB-338          RAINGAGE-1       JCT-604          0.098918 2.000000 78.000000 11.000000 0.000000                 
SUB-340          RAINGAGE-1       JCT-608          0.129305 2.000000 14.440000 4.160000 0.000000                 
SUB-342          RAINGAGE-1       JCT-612          0.455344 2.000000 91.000000 3.900000 0.000000                 
SUB-344          RAINGAGE-1       JCT-616          2.969426 2.000000 281.000000 3.000000 0.000000                 
SUB-346          RAINGAGE-1       JCT-620          3.023803 2.000000 363.000000 5.300000 0.000000                 
SUB-348          RAINGAGE-1       JCT-624          1.614002 2.000000 345.000000 12.700000 0.000000                 
SUB-350          RAINGAGE-1       JCT-628          1.309460 2.000000 264.000000 5.900000 0.000000                 
SUB-352          RAINGAGE-1       JCT-632          1.587149 2.000000 281.000000 1.600000 0.000000                 

[SUBAREAS]
;;Subcatchment   N-Imperv   N-Perv     S-Imperv   S-Perv     PctZero    RouteTo    PctRouted 
;;-------------- ---------- ---------- ---------- ---------- ---------- ---------- ----------
SUB-100          0.011000   0.150000   0.050000   0.350000   25.000000  OUTLET    
SUB-102          0.011000   0.150000   0.050000   0.350000   25.000000  OUTLET    
SUB-104          0.011000   0.150000   0.050000   0.350000   25.000000  OUTLET    
SUB-106          0.011000   0.150000   0.050000   0.350000   25.000000  OUTLET    
SUB-108          0.011000   0.150000   0.050000   0.350000   25.000000  PERVIOUS   10.000000 
SUB-110          0.011000   0.150000   0.050000   0.350000   25.000000  PERVIOUS   10.000000 
SUB-112          0.011000   0.150000   0.050000   0.350000   25.000000  PERVIOUS   10.000000 
SUB-114          0.011000   0.150000   0.050000   0.350000   25.000000  PERVIOUS   10.000000 
SUB-116          0.011000   0.150000   0.050000   0.350000   25.000000  PERVIOUS   10.000000 
SUB-118          0.011000   0.150000   0.050000   0.350000   25.000000  OUTLET    
SUB-120          0.011000   0.150000   0.050000   0.350000   25.000000  PERVIOUS   10.000000 
SUB-122          0.011000   0.150000   0.050000   0.350000   25.000000  PERVIOUS   10.000000 
SUB-124          0.011000   0.150000   0.050000   0.350000   25.000000  PERVIOUS   10.000000 
SUB-126          0.011000   0.150000   0.050000   0.350000   25.000000  PERVIOUS   10.000000 
SUB-128          0.011000   0.150000   0.050000   0.350000   25.000000  PERVIOUS   10.000000 
SUB-130          0.011000   0.150000   0.050000   0.350000   25.000000  PERVIOUS   10.000000 
SUB-132          0.011000   0.150000   0.050000   0.350000   25.000000  PERVIOUS   10.000000 
SUB-134          0.011000   0.150000   0.050000   0.350000   25.000000  PERVIOUS   10.000000 
SUB-136          0.011000   0.150000   0.050000   0.350000   25.000000  PERVIOUS   100.000000
SUB-138          0.011000   0.150000   0.050000   0.350000   25.000000  PERVIOUS   10.000000 
SUB-140          0.011000   0.150000   0.050000   0.350000   25.000000  PERVIOUS   10.000000 
SUB-142          0.011000   0.150000   0.050000   0.350000   25.000000  PERVIOUS   10.000000 
SUB-144          0.011000   0.150000   0.050000   0.350000   25.000000  PERVIOUS   10.000000 
SUB-146          0.011000   0.150000   0.050000   0.350000   25.000000  PERVIOUS   10.000000 
SUB-148          0.011000   0.150000   0.050000   0.350000   25.000000  PERVIOUS   10.000000 
SUB-150          0.011000   0.150000   0.050000   0.350000   25.000000  PERVIOUS   10.000000 
SUB-152          0.011000   0.150000   0.050000   0.350000   25.000000  PERVIOUS   10.000000 
SUB-154          0.011000   0.150000   0.050000   0.350000   25.000000  PERVIOUS   10.000000 
SUB-156          0.011000   0.150000   0.050000   0.350000   25.000000  PERVIOUS   10.000000 
SUB-158          0.011000   0.150000   0.050000   0.350000   25.000000  OUTLET    
SUB-160          0.011000   0.150000   0.050000   0.350000   25.000000  PERVIOUS   10.000000 
SUB-162          0.011000   0.150000   0.050000   0.350000   25.000000  PERVIOUS   10.000000 
SUB-164          0.011000   0.150000   0.050000   0.350000   25.000000  PERVIOUS   10.000000 
SUB-166          0.011000   0.150000   0.050000   0.350000   25.000000  PERVIOUS   10.000000 
SUB-168          0.011000   0.150000   0.050000   0.350000   25.000000  PERVIOUS   100.000000
SUB-170          0.011000   0.150000   0.050000   0.350000   25.000000  PERVIOUS   10.000000 
SUB-172          0.011000   0.150000   0.050000   0.350000   25.000000  PERVIOUS   10.000000 
SUB-174          0.011000   0.150000   0.050000   0.350000   25.000000  PERVIOUS   10.000000 
SUB-176          0.011000   0.150000   0.050000   0.350000   25.000000  PERVIOUS   10.000000 
SUB-178          0.011000   0.150000   0.050000   0.350000   25.000000  PERVIOUS   10.000000 
SUB-180          0.011000   0.150000   0.050000   0.350000   25.000000  PERVIOUS   10.000000 
SUB-182          0.011000   0.150000   0.050000   0.350000   25.000000  PERVIOUS   10.000000 
SUB-184          0.011000   0.150000   0.050000   0.350000   25.000000  PERVIOUS   10.000000 
SUB-186          0.011000   0.150000   0.050000   0.350000   25.000000  PERVIOUS   10.000000 
SUB-188          0.011000   0.150000   0.050000   0.350000   25.000000  OUTLET    
SUB-190          0.011000   0.150000   0.050000   0.350000   25.000000  PERVIOUS   10.000000 
SUB-192          0.011000   0.150000   0.050000   0.350000   25.000000  PERVIOUS   10.000000 
SUB-194          0.011000   0.150000   0.050000   0.350000   25.000000  PERVIOUS   10.000000 
SUB-196          0.011000   0.150000   0.050000   0.350000   25.000000  PERVIOUS   10.000000 
SUB-198          0.011000   0.150000   0.050000   0.350000   25.000000  PERVIOUS   10.000000 
SUB-200          0.011000   0.150000   0.050000   0.350000   25.000000  OUTLET    
SUB-202          0.011000   0.150000   0.050000   0.350000   25.000000  PERVIOUS   10.000000 
SUB-204          0.011000   0.150000   0.050000   0.350000   25.000000  PERVIOUS   10.000000 
SUB-206          0.011000   0.150000   0.050000   0.350000   25.000000  PERVIOUS   100.000000
SUB-208          0.011000   0.150000   0.050000   0.350000   25.000000  PERVIOUS   10.000000 
SUB-210          0.011000   0.150000   0.050000   0.350000   25.000000  PERVIOUS   10.000000 
SUB-212          0.011000   0.150000   0.050000   0.350000   25.000000  PERVIOUS   10.000000 
SUB-214          0.011000   0.150000   0.050000   0.350000   25.000000  PERVIOUS   10.000000 
SUB-216          0.011000   0.150000   0.050000   0.350000   25.000000  PERVIOUS   10.000000 
SUB-218          0.011000   0.150000   0.050000   0.350000   25.000000  PERVIOUS   10.000000 
SUB-220          0.011000   0.150000   0.050000   0.350000   25.000000  PERVIOUS   10.000000 
SUB-222          0.011000   0.150000   0.050000   0.350000   25.000000  PERVIOUS   100.000000
SUB-224          0.011000   0.150000   0.050000   0.350000   25.000000  PERVIOUS   100.000000
SUB-226          0.011000   0.150000   0.050000   0.350000   25.000000  PERVIOUS   100.000000
SUB-228          0.011000   0.150000   0.050000   0.350000   25.000000  PERVIOUS   10.000000 
SUB-230          0.011000   0.150000   0.050000   0.350000   25.000000  PERVIOUS   10.000000 
SUB-232          0.011000   0.150000   0.050000   0.350000   25.000000  PERVIOUS   10.000000 
SUB-234          0.011000   0.150000   0.050000   0.350000   25.000000  PERVIOUS   10.000000 
SUB-236          0.011000   0.150000   0.050000   0.350000   25.000000  PERVIOUS   10.000000 
SUB-238          0.011000   0.150000   0.050000   0.350000   25.000000  PERVIOUS   10.000000 
SUB-240          0.011000   0.150000   0.050000   0.350000   25.000000  PERVIOUS   10.000000 
SUB-242          0.011000   0.150000   0.050000   0.350000   25.000000  PERVIOUS   10.000000 
SUB-244          0.011000   0.150000   0.050000   0.350000   25.000000  IMPERVIOUS 100.000000
SUB-246          0.011000   0.150000   0.050000   0.350000   25.000000  PERVIOUS   10.000000 
SUB-248          0.011000   0.150000   0.050000   0.350000   25.000000  PERVIOUS   10.000000 
SUB-250          0.011000   0.150000   0.050000   0.350000   25.000000  PERVIOUS   10.000000 
SUB-252          0.011000   0.150000   0.050000   0.350000   25.000000  PERVIOUS   10.000000 
SUB-254          0.011000   0.150000   0.050000   0.350000   25.000000  PERVIOUS   10.000000 
SUB-256          0.011000   0.150000   0.050000   0.350000   25.000000  PERVIOUS   10.000000 
SUB-258          0.011000   0.150000   0.050000   0.350000   25.000000  PERVIOUS   10.000000 
SUB-260          0.011000   0.150000   0.050000   0.350000   25.000000  PERVIOUS   10.000000 
SUB-262          0.011000   0.150000   0.050000   0.350000   25.000000  PERVIOUS   10.000000 
SUB-264          0.011000   0.150000   0.050000   0.350000   25.000000  PERVIOUS   10.000000 
SUB-266          0.011000   0.150000   0.050000   0.350000   25.000000  PERVIOUS   10.000000 
SUB-268          0.011000   0.150000   0.050000   0.350000   25.000000  PERVIOUS   10.000000 
SUB-270          0.011000   0.150000   0.050000   0.350000   25.000000  PERVIOUS   10.000000 
SUB-272          0.011000   0.150000   0.050000   0.350000   25.000000  PERVIOUS   10.000000 
SUB-274          0.011000   0.150000   0.050000   0.350000   25.000000  PERVIOUS   10.000000 
SUB-276          0.011000   0.150000   0.050000   0.350000   25.000000  PERVIOUS   10.000000 
SUB-278          0.011000   0.150000   0.050000   0.350000   25.000000  IMPERVIOUS 100.000000
SUB-280          0.011000   0.150000   0.050000   0.350000   25.000000  PERVIOUS   100.000000
SUB-282          0.011000   0.150000   0.050000   0.350000   25.000000  PERVIOUS   10.000000 
SUB-284          0.011000   0.150000   0.050000   0.350000   25.000000  PERVIOUS   10.000000 
SUB-288          0.011000   0.150000   0.050000   0.350000   25.000000  PERVIOUS   10.000000 
SUB-290          0.011000   0.150000   0.050000   0.350000   25.000000  PERVIOUS   10.000000 
SUB-292          0.011000   0.150000   0.050000   0.350000   25.000000  PERVIOUS   10.000000 
SUB-294          0.011000   0.150000   0.050000   0.350000   25.000000  PERVIOUS   100.000000
SUB-296          0.011000   0.150000   0.050000   0.350000   25.000000  PERVIOUS   100.000000
SUB-298          0.011000   0.150000   0.050000   0.350000   25.000000  PERVIOUS   10.000000 
SUB-300          0.011000   0.150000   0.050000   0.350000   25.000000  PERVIOUS   100.000000
SUB-302          0.011000   0.150000   0.050000   0.350000   25.000000  PERVIOUS   10.000000 
SUB-304          0.011000   0.150000   0.050000   0.350000   25.000000  IMPERVIOUS 100.000000
SUB-306          0.011000   0.150000   0.050000   0.350000   25.000000  PERVIOUS   10.000000 
SUB-308          0.011000   0.150000   0.050000   0.350000   25.000000  PERVIOUS   10.000000 
SUB-310          0.011000   0.150000   0.050000   0.350000   25.000000  PERVIOUS   10.000000 
SUB-312          0.011000   0.150000   0.050000   0.350000   25.000000  PERVIOUS   10.000000 
SUB-314          0.011000   0.150000   0.050000   0.350000   25.000000  PERVIOUS   10.000000 
SUB-316          0.011000   0.150000   0.050000   0.350000   25.000000  IMPERVIOUS 0.000000  
SUB-318          0.011000   0.150000   0.050000   0.350000   25.000000  IMPERVIOUS 100.000000
SUB-320          0.011000   0.150000   0.050000   0.350000   25.000000  PERVIOUS   10.000000 
SUB-322          0.011000   0.150000   0.050000   0.350000   25.000000  IMPERVIOUS 100.000000
SUB-324          0.011000   0.150000   0.050000   0.350000   25.000000  PERVIOUS   10.000000 
SUB-326          0.011000   0.150000   0.050000   0.350000   25.000000  PERVIOUS   10.000000 
SUB-328          0.011000   0.150000   0.050000   0.350000   25.000000  PERVIOUS   10.000000 
SUB-330          0.011000   0.150000   0.050000   0.350000   25.000000  PERVIOUS   100.000000
SUB-332          0.011000   0.150000   0.050000   0.350000   25.000000  IMPERVIOUS 0.000000  
SUB-333          0.011000   0.150000   0.050000   0.350000   25.000000  PERVIOUS   100.000000
SUB-334          0.011000   0.150000   0.050000   0.350000   25.000000  PERVIOUS   100.000000
SUB-335          0.011000   0.150000   0.050000   0.350000   25.000000  PERVIOUS   100.000000
SUB-336          0.011000   0.150000   0.050000   0.350000   25.000000  PERVIOUS   100.000000
SUB-338          0.011000   0.150000   0.050000   0.350000   25.000000  PERVIOUS   100.000000
SUB-340          0.011000   0.150000   0.050000   0.350000   25.000000  PERVIOUS   100.000000
SUB-342          0.011000   0.150000   0.050000   0.350000   25.000000  PERVIOUS   100.000000
SUB-344          0.011000   0.150000   0.050000   0.350000   25.000000  PERVIOUS   100.000000
SUB-346          0.011000   0.150000   0.050000   0.350000   25.000000  PERVIOUS   100.000000
SUB-348          0.011000   0.150000   0.050000   0.350000   25.000000  PERVIOUS   100.000000
SUB-350          0.011000   0.150000   0.050000   0.350000   25.000000  PERVIOUS   100.000000
SUB-352          0.011000   0.150000   0.050000   0.350000   25.000000  PERVIOUS   100.000000

[INFILTRATION]
;;Subcatchment   MaxRate    MinRate    Decay      DryTime    MaxInfil  
;;-------------- ---------- ---------- ---------- ---------- ----------
SUB-100          5.000000   1.000000   2.520000   5.000000   0.000000  
SUB-102          5.000000   1.000000   2.520000   5.000000   0.000000  
SUB-104          5.000000   1.000000   2.520000   5.000000   0.000000  
SUB-106          4.960000   0.968000   2.836800   5.000000   0.000000  
SUB-108          4.500000   0.600000   6.480000   5.000000   0.000000  
SUB-110          5.000000   1.000000   2.520000   5.000000   0.000000  
SUB-112          5.000000   1.000000   2.520000   5.000000   0.000000  
SUB-114          5.000000   1.000000   2.520000   5.000000   0.000000  
SUB-116          5.000000   1.000000   2.520000   5.000000   0.000000  
SUB-118          5.000000   1.000000   2.520000   5.000000   0.000000  
SUB-120          5.000000   1.000000   2.520000   5.000000   0.000000  
SUB-122          4.850000   0.880000   3.708000   5.000000   0.000000  
SUB-124          4.500000   0.600000   6.480000   5.000000   0.000000  
SUB-126          5.000000   1.000000   2.520000   5.000000   0.000000  
SUB-128          5.000000   1.000000   2.520000   5.000000   0.000000  
SUB-130          5.000000   1.000000   2.520000   5.000000   0.000000  
SUB-132          5.000000   1.000000   2.520000   5.000000   0.000000  
SUB-134          5.000000   1.000000   2.520000   5.000000   0.000000  