[TITLE]
;;Project Title/Notes

[OPTIONS]
;;Option             Value
FLOW_UNITS           CFS
INFILTRATION         HORTON
FLOW_ROUTING         DYNWAVE
LINK_OFFSETS         DEPTH
MIN_SLOPE            0
ALLOW_PONDING        YES
SKIP_STEADY_STATE    NO

START_DATE           01/01/2002
START_TIME           00:00:00
REPORT_START_DATE    01/01/2002
REPORT_START_TIME    00:00:00
END_DATE             01/03/2002
END_TIME             00:00:00
SWEEP_START          01/01
SWEEP_END            12/31
DRY_DAYS             5.000000
REPORT_STEP          00:05:00
WET_STEP             00:05:00
DRY_STEP             01:00:00
ROUTING_STEP         0:00:10 

INERTIAL_DAMPING     NONE
NORMAL_FLOW_LIMITED  BOTH
FORCE_MAIN_EQUATION  H-W
VARIABLE_STEP        0.75
LENGTHENING_STEP     10
MIN_SURFAREA         12.557
MAX_TRIALS           8
HEAD_TOLERANCE       0.000100
SYS_FLOW_TOL         5
LAT_FLOW_TOL         5
MINIMUM_STEP         0
THREADS              1

[EVAPORATION]
;;Data Source    Parameters
;;-------------- ----------------
CONSTANT         0.0
DRY_ONLY         NO

[RAINGAGES]
;;Name           Format    Interval SCF      Source    
;;-------------- --------- ------ ------ ----------
HELENA           CUMULATIVE 0.083000 1.000000 TIMESERIES 005-YR_24HR_SCS_TYPE2_2017

[SUBCATCHMENTS]
;;Name           Rain Gage        Outlet           Area     %Imperv  Width    %Slope   CurbLen  SnowPack        
;;-------------- ---------------- ---------------- -------- -------- -------- -------- -------- ----------------
WS_SC100         HELENA           WS_OFALL102      122.689039 37.599000 1618.247000 8.666000 0.000000                 
WS_SC101         HELENA           WS_PND36         270.610420 3.000000 2403.335000 16.422500 0.000000                 
WS_SC102         HELENA           WS_NAT_STORAGE_01A 162.009175 33.133000 1859.567000 3.924000 0.000000                 
WS_SC103         HELENA           WS_JCT174        26.048290 38.406000 372.822000 5.034000 0.000000                 
WS_SC104         HELENA           WS_JCT363        23.563718 42.435000 354.596000 6.823000 0.000000                 
WS_SC105         HELENA           WS_OFALL100      23.947807 4.762000 357.474000 19.703000 0.000000                 
WS_SC106         HELENA           WS_PND35         9.952454 27.019000 460.900000 8.154000 0.000000                 
WS_SC107         HELENA           WS_JCT133        129.311260 3.000000 1661.346000 16.423000 0.000000                 
WS_SC108         HELENA           WS_JCT115        45.835031 31.237000 989.101000 11.383000 0.000000                 
WS_SC109         HELENA           WS_OFALL100      11.389527 26.640000 493.054000 7.180000 0.000000                 
WS_SC110         HELENA           WS_JCT138        37.794627 34.701000 898.167000 5.062000 0.000000                 
WS_SC111         HELENA           WS_JCT370        57.285528 25.000000 552.885000 24.006000 0.000000                 
WS_SC112         HELENA           WS_JCT407        9.367224 40.992000 447.144000 7.019000 0.000000                 
WS_SC116         HELENA           WS_JCT354        26.119363 3.637000 746.661000 2.869000 0.000000                 
WS_SC119         HELENA           WS_JCT355        191.701889 10.325000 2022.810000 3.226000 0.000000                 
WS_SC122         HELENA           WS_JCT373        32.186717 33.743000 414.429000 12.339000 0.000000                 
WS_SC123         HELENA           WS_JCT372        74.726412 12.000000 631.465000 30.027000 0.000000                 
WS_SC124         HELENA           WS_JCT371        19.133078 40.969000 319.525000 10.540000 0.000000                 
WS_SC125         HELENA           WS_JCT374        30.497058 28.025000 403.405000 12.881000 0.000000                 
WS_SC126         HELENA           WS_JCT369        20.948906 44.452000 334.343000 10.406000 0.000000                 
WS_SC127         HELENA           WS_JCT367        37.458310 34.222000 447.081000 17.874000 0.000000                 
WS_SC128         HELENA           WS_JCT368        60.878130 20.000000 569.958000 24.429000 0.000000                 
WS_SC129         HELENA           WS_JCT366        28.892979 40.955000 392.652000 8.164000 0.000000                 
WS_SC130         HELENA           WS_JCT364        35.703364 40.372000 436.482000 9.590000 0.000000                 
WS_SC131         HELENA           WS_JCT362        15.238295 43.071000 285.154000 6.216000 0.000000                 
WS_SC132         HELENA           WS_JCT336        32.034111 27.311000 826.891000 4.949000 0.000000                 
WS_SC133         HELENA           WS_PND31         17.185254 11.606000 605.648000 7.488000 0.000000                 
WS_SC134         HELENA           WS_PND33         10.685010 16.412000 477.562000 7.172000 0.000000                 
WS_SC135         HELENA           WS_JCT179        31.976738 39.887000 413.075000 4.862000 0.000000                 
WS_SC136         HELENA           WS_JCT164        22.256384 39.353000 344.619000 5.259000 0.000000                 
WS_SC137         HELENA           WS_JCT163        8.096037 34.712000 207.849000 11.867000 0.000000                 
WS_SC138         HELENA           WS_JCT382        26.584083 34.346000 376.637000 12.154000 0.000000                 
WS_SC139         HELENA           WS_JCT383        9.795221 33.720000 228.623000 9.672000 0.000000                 
WS_SC140         HELENA           WS_JCT125        9.599219 31.838000 226.324000 11.857000 0.000000                 
WS_SC141         HELENA           WS_JCT386        6.080877 44.100000 360.268000 8.185000 0.000000                 
WS_SC142         HELENA           WS_JCT365        31.418214 29.031000 409.452000 18.663000 0.000000                 
WS_SC143         HELENA           WS_JCT101        37.030998 51.004000 889.047000 7.612000 0.000000                 
WS_SC144         HELENA           WS_JCT361        22.083344 44.982000 686.554000 6.216000 0.000000                 
WS_SC145         HELENA           WS_JCT360        5.848226 52.571000 176.654000 4.600000 0.000000                 
WS_SC146         HELENA           WS_JCT136        13.663219 39.036000 270.015000 4.686000 0.000000                 
WS_SC147         HELENA           WS_JCT358        4.851731 44.435000 160.902000 4.789000 0.000000                 
WS_SC148         HELENA           WS_JCT119        10.044914 39.762000 231.518000 4.489000 0.000000                 
WS_SC149         HELENA           WS_JCT260        10.873458 43.107000 240.877000 4.484000 0.000000                 
WS_SC150         HELENA           WS_JCT311        9.856576 42.959000 229.337000 4.978000 0.000000                 
WS_SC151         HELENA           WS_JCT310        8.292722 42.494000 210.359000 5.364000 0.000000                 
WS_SC152         HELENA           WS_JCT334        7.442125 42.852000 199.279000 5.573000 0.000000                 
WS_SC153         HELENA           WS_JCT333        3.376630 44.688000 134.231000 5.809000 0.000000                 
WS_SC154         HELENA           WS_JCT132        26.137104 33.376000 373.457000 3.649000 0.000000                 
WS_SC155         HELENA           WS_JCT350        18.783474 39.130000 316.592000 4.449000 0.000000                 
WS_SC156         HELENA           WS_JCT258        17.351937 27.012000 304.289000 4.621000 0.000000                 
WS_SC157         HELENA           WS_JCT257        20.117390 36.098000 327.641000 4.903000 0.000000                 
WS_SC158         HELENA           WS_JCT217        4.594874 45.380000 156.585000 5.714000 0.000000                 
WS_SC159         HELENA           WS_JCT210        5.647006 39.661000 347.177000 5.517000 0.000000                 
WS_SC160         HELENA           WS_JCT203        4.852769 40.756000 321.838000 5.037000 0.000000                 
WS_SC161         HELENA           WS_JCT198        3.137331 40.460000 258.775000 5.252000 0.000000                 
WS_SC162         HELENA           WS_JCT261        19.888144 39.294000 325.769000 5.163000 0.000000                 
WS_SC163         HELENA           WS_JCT173        23.618409 39.210000 355.007000 5.055000 0.000000                 
WS_SC164         HELENA           WS_JCT166        18.776920 37.092000 316.537000 4.792000 0.000000                 
WS_SC165         HELENA           WS_JCT169        13.909704 27.459000 544.880000 5.314000 0.000000                 
WS_SC166         HELENA           WS_PND34         27.065714 25.929000 380.033000 7.829000 0.000000                 
WS_SC167         HELENA           WS_JCT298        111.640950 11.083000 1543.667000 4.736000 0.000000                 
WS_SC168         HELENA           WS_JCT264        125.508043 6.419000 1636.733000 2.208000 0.000000                 
WS_SC169         HELENA           WS_JCT273        142.869501 17.588000 1746.271000 3.547000 0.000000                 
WS_SC170         HELENA           WS_JCT406        44.378945 12.119000 973.264000 3.538000 0.000000                 

[SUBAREAS]
;;Subcatchment   N-Imperv   N-Perv     S-Imperv   S-Perv     PctZero    RouteTo    PctRouted 
;;-------------- ---------- ---------- ---------- ---------- ---------- ---------- ----------
WS_SC100         0.016000   0.150000   0.050000   0.100000   25.000000  OUTLET    
WS_SC101         0.016000   0.150000   0.050000   0.100000   25.000000  OUTLET    
WS_SC102         0.016000   0.150000   0.050000   0.100000   25.000000  OUTLET    
WS_SC103         0.016000   0.150000   0.050000   0.100000   25.000000  OUTLET    
WS_SC104         0.016000   0.150000   0.050000   0.100000   25.000000  OUTLET    
WS_SC105         0.016000   0.150000   0.050000   0.100000   25.000000  OUTLET    
WS_SC106         0.016000   0.150000   0.050000   0.100000   25.000000  OUTLET    
WS_SC107         0.016000   0.150000   0.050000   0.100000   25.000000  OUTLET    
WS_SC108         0.016000   0.150000   0.050000   0.100000   25.000000  OUTLET    
WS_SC109         0.016000   0.150000   0.050000   0.100000   25.000000  OUTLET    
WS_SC110         0.016000   0.150000   0.050000   0.100000   25.000000  OUTLET    
WS_SC111         0.016000   0.150000   0.050000   0.100000   25.000000  OUTLET    
WS_SC112         0.016000   0.150000   0.050000   0.100000   25.000000  OUTLET    
WS_SC116         0.016000   0.150000   0.050000   0.100000   25.000000  OUTLET    
WS_SC119         0.016000   0.150000   0.050000   0.100000   25.000000  OUTLET    
WS_SC122         0.016000   0.150000   0.050000   0.100000   25.000000  OUTLET    
WS_SC123         0.016000   0.150000   0.050000   0.100000   25.000000  OUTLET    
WS_SC124         0.016000   0.150000   0.050000   0.100000   25.000000  OUTLET    
WS_SC125         0.016000   0.150000   0.050000   0.100000   25.000000  OUTLET    
WS_SC126         0.016000   0.150000   0.050000   0.100000   25.000000  OUTLET    
WS_SC127         0.016000   0.150000   0.050000   0.100000   25.000000  OUTLET    
WS_SC128         0.016000   0.150000   0.050000   0.100000   25.000000  OUTLET    
WS_SC129         0.016000   0.150000   0.050000   0.100000   25.000000  OUTLET    
WS_SC130         0.016000   0.150000   0.050000   0.100000   25.000000  OUTLET    
WS_SC131         0.016000   0.150000   0.050000   0.100000   25.000000  OUTLET    
WS_SC132         0.016000   0.150000   0.050000   0.100000   25.000000  OUTLET    
WS_SC133         0.016000   0.150000   0.050000   0.100000   25.000000  OUTLET    
WS_SC134         0.016000   0.150000   0.050000   0.100000   25.000000  OUTLET    
WS_SC135         0.016000   0.150000   0.050000   0.100000   25.000000  OUTLET    
WS_SC136         0.016000   0.150000   0.050000   0.100000   25.000000  OUTLET    
WS_SC137         0.016000   0.150000   0.050000   0.100000   25.000000  OUTLET    
WS_SC138         0.016000   0.150000   0.050000   0.100000   25.000000  OUTLET    
WS_SC139         0.016000   0.150000   0.050000   0.100000   25.000000  OUTLET    
WS_SC140         0.016000   0.150000   0.050000   0.100000   25.000000  OUTLET    
WS_SC141         0.016000   0.150000   0.050000   0.100000   25.000000  OUTLET    
WS_SC142         0.016000   0.150000   0.050000   0.100000   25.000000  OUTLET    
WS_SC143         0.016000   0.150000   0.050000   0.100000   25.000000  OUTLET    
WS_SC144         0.016000   0.150000   0.050000   0.100000   25.000000  OUTLET    
WS_SC145         0.016000   0.150000   0.050000   0.100000   25.000000  OUTLET    
WS_SC146         0.016000   0.150000   0.050000   0.100000   25.000000  OUTLET    
WS_SC147         0.016000   0.150000   0.050000   0.100000   25.000000  OUTLET    
WS_SC148         0.016000   0.150000   0.050000   0.100000   25.000000  OUTLET    
WS_SC149         0.016000   0.150000   0.050000   0.100000   25.000000  OUTLET    
WS_SC150         0.016000   0.150000   0.050000   0.100000   25.000000  OUTLET    
WS_SC151         0.016000   0.150000   0.050000   0.100000   25.000000  OUTLET    
WS_SC152         0.016000   0.150000   0.050000   0.100000   25.000000  OUTLET    
WS_SC153         0.016000   0.150000   0.050000   0.100000   25.000000  OUTLET    
WS_SC154         0.016000   0.150000   0.050000   0.100000   25.000000  OUTLET    
WS_SC155         0.016000   0.150000   0.050000   0.100000   25.000000  OUTLET    
WS_SC156         0.016000   0.150000   0.050000   0.100000   25.000000  OUTLET    
WS_SC157         0.016000   0.150000   0.050000   0.100000   25.000000  OUTLET    
WS_SC158         0.016000   0.150000   0.050000   0.100000   25.000000  OUTLET    
WS_SC159         0.016000   0.150000   0.050000   0.100000   25.000000  OUTLET    
WS_SC160         0.016000   0.150000   0.050000   0.100000   25.000000  OUTLET    
WS_SC161         0.016000   0.150000   0.050000   0.100000   25.000000  OUTLET    
WS_SC162         0.016000   0.150000   0.050000   0.100000   25.000000  OUTLET    
WS_SC163         0.016000   0.150000   0.050000   0.100000   25.000000  OUTLET    
WS_SC164         0.016000   0.150000   0.050000   0.100000   25.000000  OUTLET    
WS_SC165         0.016000   0.150000   0.050000   0.100000   25.000000  OUTLET    
WS_SC166         0.016000   0.150000   0.050000   0.100000   25.000000  OUTLET    
WS_SC167         0.016000   0.150000   0.050000   0.100000   25.000000  OUTLET    
WS_SC168         0.016000   0.150000   0.050000   0.100000   25.000000  OUTLET    
WS_SC169         0.016000   0.150000   0.050000   0.100000   25.000000  OUTLET    
WS_SC170         0.016000   0.150000   0.050000   0.100000   25.000000  OUTLET    

[INFILTRATION]
;;Subcatchment   MaxRate    MinRate    Decay      DryTime    MaxInfil  
;;-------------- ---------- ---------- ---------- ---------- ----------
WS_SC100         2.000000   0.500000   4.000000   7.000000   0.000000  
WS_SC101         1.990110   0.496044   4.000000   7.000000   0.000000  
WS_SC102         1.972090   0.483254   4.000000   7.000000   0.000000  
WS_SC103         2.000000   0.500000   4.000000   7.000000   0.000000  
WS_SC104         2.000000   0.500000   4.000000   7.000000   0.000000  
WS_SC105         2.000000   0.500000   4.000000   7.000000   0.000000  
WS_SC106         2.000000   0.500000   4.000000   7.000000   0.000000  
WS_SC107         1.935960   0.474384   4.000000   7.000000   0.000000  
WS_SC108         2.000000   0.500000   4.000000   7.000000   0.000000  
WS_SC109         1.977005   0.486203   4.000000   7.000000   0.000000  
WS_SC110         2.000000   0.500000   4.000000   7.000000   0.000000  
WS_SC111         1.897340   0.438404   4.000000   7.000000   0.000000  
WS_SC112         2.000000   0.500000   4.000000   7.000000   0.000000  
WS_SC116         1.500000   0.200000   4.000000   7.000000   0.000000  
WS_SC119         1.571550   0.242930   4.000000   7.000000   0.000000  
WS_SC122         2.000000   0.500000   4.000000   7.000000   0.000000  
WS_SC123         1.939280   0.475712   4.000000   7.000000   0.000000  
WS_SC124         2.000000   0.500000   4.000000   7.000000   0.000000  
WS_SC125         2.000000   0.500000   4.000000   7.000000   0.000000  
WS_SC126         2.000000   0.500000   4.000000   7.000000   0.000000  
WS_SC127         1.889770   0.433862   4.000000   7.000000   0.000000  
WS_SC128         1.929230   0.457538   4.000000   7.000000   0.000000  
WS_SC129         2.000000   0.500000   4.000000   7.000000   0.000000  
WS_SC130         2.000000   0.500000   4.000000   7.000000   0.000000  
WS_SC131         2.000000   0.500000   4.000000   7.000000   0.000000  
WS_SC132         1.984265   0.490559   4.000000   7.000000   0.000000  
WS_SC133         1.710145   0.326087   4.000000   7.000000   0.000000  
WS_SC134         1.807645   0.384587   4.000000   7.000000   0.000000  
WS_SC135         2.000000   0.500000   4.000000   7.000000   0.000000  
WS_SC136         2.000000   0.500000   4.000000   7.000000   0.000000  
WS_SC137         2.000000   0.500000   4.000000   7.000000   0.000000  
WS_SC138         2.000000   0.500000   4.000000   7.000000   0.000000  
WS_SC139         2.000000   0.500000   4.000000   7.000000   0.000000  
WS_SC140         2.000000   0.500000   4.000000   7.000000   0.000000  
WS_SC141         2.000000   0.500000   4.000000   7.000000   0.000000  
WS_SC142         2.000000   0.500000   4.000000   7.000000   0.000000  
WS_SC143         1.986950   0.494780   4.000000   7.000000   0.000000  
WS_SC144         2.000000   0.500000   4.000000   7.000000   0.000000  
WS_SC145         2.000000   0.500000   4.000000   7.000000   0.000000  
WS_SC146         2.000000   0.500000   4.000000   7.000000   0.000000  
WS_SC147         2.000000   0.500000   4.000000   7.000000   0.000000  
WS_SC148         2.000000   0.500000   4.000000   7.000000   0.000000  
WS_SC149         2.000000   0.500000   4.000000   7.000000   0.000000  
WS_SC150         2.000000   0.500000   4.000000   7.000000   0.000000  
WS_SC151         2.000000   0.500000   4.000000   7.000000   0.000000  
WS_SC152         2.000000   0.500000   4.000000   7.000000   0.000000  
WS_SC153         2.000000   0.500000   4.000000   7.000000   0.000000  
WS_SC154         2.000000   0.500000   4.000000   7.000000   0.000000  
WS_SC155         2.000000   0.500000   4.000000   7.000000   0.000000  
WS_SC156         2.000000   0.500000   4.000000   7.000000   0.000000  
WS_SC157         2.000000   0.500000   4.000000   7.000000   0.000000  
WS_SC158         2.000000   0.500000   4.000000   7.000000   0.000000  
WS_SC159         2.000000   0.500000   4.000000   7.000000   0.000000  
WS_SC160         2.000000   0.500000   4.000000   7.000000   0.000000  
WS_SC161         2.000000   0.500000   4.000000   7.000000   0.000000  
WS_SC162         2.000000   0.500000   4.000000   7.000000   0.000000  
WS_SC163         2.000000   0.500000   4.000000   7.000000   0.000000  
WS_SC164         2.000000   0.500000   4.000000   7.000000   0.000000  
WS_SC165         2.000000   0.500000   4.000000   7.000000   0.000000  
WS_SC166         1.979010   0.491604   4.000000   7.000000   0.000000  
WS_SC167         1.823690   0.429476   4.000000   7.000000   0.000000  
WS_SC168         1.695410   0.317600   4.000000   7.000000   0.000000  
WS_SC169         1.537650   0.222590   4.000000   7.000000   0.000000  
WS_SC170         1.759685   0.355811   4.000000   7.000000   0.000000  

[JUNCTIONS]
;;Name           Elevation  MaxDepth   InitDepth  SurDepth   Aponded   
;;-------------- ---------- ---------- ---------- ---------- ----------
WS_JCT101        3953.000000 20.000000  0.000000   15.000000  0.000000  
WS_JCT108        3992.000000 25.923117  0.000000   0.000000   0.000000  
WS_JCT112        3834.855722 19.998914  0.000000   0.000000   0.000000  
WS_JCT115        3943.500000 24.537597  0.000000   0.000000   0.000000  
WS_JCT117        3942.430000 20.097197  0.000000   0.000000   0.000000  
WS_JCT118        3939.960000 19.762797  0.000000   0.000000   0.000000  
WS_JCT119        3966.000000 18.798397  0.000000   0.000000   0.000000  
WS_JCT120        3943.500000 20.103037  0.000000   0.000000   0.000000  
WS_JCT125        3998.000000 4.760000   0.000000   15.000000  0.000000  
WS_JCT126        3949.000000 19.857597  0.000000   0.000000   0.000000  
WS_JCT129        4123.620000 22.275597  0.000000   0.000000   0.000000  
WS_JCT130        4121.510000 20.564397  0.000000   0.000000   0.000000  
WS_JCT132        3941.000000 20.723597  0.000000   0.000000   0.000000  
WS_JCT133        4131.167000 29.308000  0.000000   15.000000  0.000000  
WS_JCT134        4130.000000 18.463837  0.000000   0.000000   0.000000  
WS_JCT135        4041.000000 24.847197  0.000000   0.000000   0.000000  
WS_JCT136        3970.000000 20.200557  0.000000   0.000000   0.000000  
WS_JCT137        3950.000000 20.612397  0.000000   0.000000   0.000000  
WS_JCT138        3898.168000 20.000477  0.000000   0.000000   0.000000  
WS_JCT142        3856.000000 20.502637  0.000000   0.000000   0.000000  
WS_JCT143        3938.660000 20.455997  0.000000   0.000000   0.000000  
WS_JCT145        4009.350000 22.027677  0.000000   0.000000   0.000000  
WS_JCT146        4022.817000 20.000000  0.000000   0.000000   0.000000  
WS_JCT147        4020.817000 20.075957  0.000000   0.000000   0.000000  
WS_JCT148        4018.917000 21.024757  0.000000   0.000000   0.000000  
WS_JCT149        4016.500000 20.296237  0.000000   0.000000   0.000000  
WS_JCT150        4010.190000 2.605722   0.000000   15.000000  0.000000  
WS_JCT151        4005.500000 20.416477  0.000000   0.000000   0.000000  
WS_JCT152        4003.000000 20.994397  0.000000   0.000000   0.000000  
WS_JCT153        4000.000000 21.019437  0.000000   0.000000   0.000000  
WS_JCT154        3996.000000 26.436397  0.000000   0.000000   0.000000  
WS_JCT159        3952.000000 22.695997  0.000000   0.000000   0.000000  
WS_JCT160        3952.500000 5.800000   0.000000   15.000000  0.000000  
WS_JCT161        4051.000000 24.359197  0.000000   0.000000   0.000000  
WS_JCT162        4091.760000 24.303997  0.000000   0.000000   0.000000  
WS_JCT163        4079.000000 28.273597  0.000000   0.000000   0.000000  
WS_JCT164        3920.000000 22.401117  0.000000   0.000000   0.000000  
WS_JCT165        3915.500000 20.803597  0.000000   0.000000   0.000000  
WS_JCT166        3919.000000 22.731997  0.000000   0.000000   0.000000  
WS_JCT167        3915.000000 20.122797  0.000000   0.000000   0.000000  
WS_JCT168        3913.000000 19.679197  0.000000   0.000000   0.000000  
WS_JCT169        3903.000000 19.281597  0.000000   0.000000   0.000000  
WS_JCT170        3900.000000 19.378797  0.000000   0.000000   0.000000  
WS_JCT171        3899.000000 22.789597  0.000000   0.000000   0.000000  
WS_JCT172        3897.000000 19.951597  0.000000   0.000000   0.000000  
WS_JCT173        3920.500000 20.723597  0.000000   0.000000   0.000000  
WS_JCT174        3922.000000 20.184637  0.000000   0.000000   0.000000  
WS_JCT176        3922.000000 23.881197  0.000000   0.000000   0.000000  
WS_JCT177        3926.000000 20.927517  0.000000   0.000000   0.000000  
WS_JCT179        3927.500000 19.906397  0.000000   0.000000   0.000000  
WS_JCT183        3900.720000 23.086797  0.000000   0.000000   0.000000  
WS_JCT185        3900.720000 20.387357  0.000000   0.000000   0.000000  
WS_JCT186        3910.000000 20.176557  0.000000   0.000000   0.000000  
WS_JCT187        3913.000000 20.325357  0.000000   0.000000   0.000000  
WS_JCT188        3915.500000 22.131997  0.000000   0.000000   0.000000  
WS_JCT192        3929.000000 19.633117  0.000000   0.000000   0.000000  
WS_JCT198        3938.310000 22.150797  0.000000   0.000000   0.000000  
WS_JCT199        3943.740000 22.198397  0.000000   0.000000   0.000000  
WS_JCT200        3944.190000 21.748397  0.000000   0.000000   0.000000  
WS_JCT201        3949.350000 20.776957  0.000000   0.000000   0.000000  
WS_JCT202        3947.440000 22.549197  0.000000   0.000000   0.000000  
WS_JCT203        3954.840000 21.430397  0.000000   0.000000   0.000000  
WS_JCT204        3954.040000 21.977837  0.000000   0.000000   0.000000  
WS_JCT205        3958.860000 23.297997  0.000000   0.000000   0.000000  
WS_JCT206        3961.380000 22.132637  0.000000   0.000000   0.000000  
WS_JCT207        3966.310000 20.456397  0.000000   0.000000   0.000000  
WS_JCT208        3967.060000 21.307037  0.000000   0.000000   0.000000  
WS_JCT209        3970.150000 22.356397  0.000000   0.000000   0.000000  
WS_JCT210        3972.730000 21.399997  0.000000   0.000000   0.000000  
WS_JCT211        3978.750000 22.940397  0.000000   0.000000   0.000000  
WS_JCT212        3977.630000 21.108397  0.000000   0.000000   0.000000  
WS_JCT213        3983.970000 22.738797  0.000000   0.000000   0.000000  
WS_JCT216        3986.510000 22.822797  0.000000   0.000000   0.000000  
WS_JCT217        3992.260000 23.327757  0.000000   0.000000   0.000000  
WS_JCT218        4018.917000 20.237557  0.000000   0.000000   0.000000  
WS_JCT219        4012.000000 26.341117  0.000000   0.000000   0.000000  
WS_JCT223        3815.000000 23.444797  0.000000   0.000000   0.000000  
WS_JCT224        3815.000000 22.847837  0.000000   0.000000   0.000000  
WS_JCT225        3814.360000 22.903997  0.000000   0.000000   0.000000  
WS_JCT226        3813.800000 21.935517  0.000000   0.000000   0.000000  
WS_JCT229        3863.620000 2.212744   0.000000   15.000000  0.000000  
WS_JCT230        3863.670000 2.006994   0.000000   15.000000  0.000000  
WS_JCT240        3866.980000 21.304397  0.000000   0.000000   0.000000  
WS_JCT245        3893.650000 21.661597  0.000000   0.000000   0.000000  
WS_JCT247        3890.000000 22.621997  0.000000   0.000000   0.000000  
WS_JCT248        3884.000000 25.866797  0.000000   0.000000   0.000000  
WS_JCT251        3939.000000 21.270557  0.000000   0.000000   0.000000  
WS_JCT254        3934.780000 17.880000  0.000000   15.000000  0.000000  
WS_JCT256        3935.000000 22.167677  0.000000   0.000000   0.000000  
WS_JCT257        3931.000000 20.506397  0.000000   0.000000   0.000000  
WS_JCT258        3933.000000 22.888477  0.000000   0.000000   0.000000  
WS_JCT260        3954.000000 18.888717  0.000000   0.000000   0.000000  
WS_JCT261        3925.500000 20.577997  0.000000   0.000000   0.000000  
WS_JCT262        3809.000000 20.857757  0.000000   0.000000   0.000000  
WS_JCT263        3808.000000 20.680237  0.000000   0.000000   0.000000  
WS_JCT264        3803.800000 20.015997  0.000000   0.000000   0.000000  
WS_JCT265        3862.900000 20.106877  0.000000   0.000000   0.000000  
WS_JCT268        3865.970000 19.559197  0.000000   0.000000   0.000000  
WS_JCT269        3870.380000 19.068797  0.000000   0.000000   0.000000  
WS_JCT270        3870.790000 20.180717  0.000000   0.000000   0.000000  
WS_JCT271        3930.080000 19.107437  0.000000   0.000000   0.000000  
WS_JCT272        3930.230000 19.925037  0.000000   0.000000   0.000000  
WS_JCT273        3835.500000 20.810957  0.000000   0.000000   0.000000  
WS_JCT276        4024.000000 4.641183   0.000000   15.000000  0.000000  
WS_JCT277        4014.500000 4.869334   0.000000   15.000000  0.000000  
WS_JCT278        4015.170000 5.617921   0.000000   15.000000  0.000000  
WS_JCT279        4010.070000 5.476406   0.000000   15.000000  0.000000  
WS_JCT280        4008.740000 4.595850   0.000000   15.000000  0.000000  
WS_JCT281        4007.940000 5.407861   0.000000   15.000000  0.000000  
WS_JCT282        3986.390000 7.797167   0.000000   15.000000  0.000000  
WS_JCT283        3986.840000 7.183006   0.000000   15.000000  0.000000  
WS_JCT284        3991.500000 7.382149   0.000000   15.000000  0.000000  
WS_JCT285        3990.650000 7.333672   0.000000   15.000000  0.000000  
WS_JCT286        4005.880000 5.199249   0.000000   15.000000  0.000000  
WS_JCT287        4003.550000 6.118672   0.000000   15.000000  0.000000  
WS_JCT288        3952.890000 5.010000   0.000000   15.000000  0.000000  
WS_JCT289        4088.000000 7.949249   0.000000   15.000000  0.000000  
WS_JCT290        3917.300000 11.115800  0.000000   15.000000  0.000000  
WS_JCT291        3923.690000 3.913006   0.000000   15.000000  0.000000  
WS_JCT292        3934.760000 4.918389   0.000000   15.000000  0.000000  
WS_JCT293        3984.500000 4.537744   0.000000   15.000000  0.000000  
WS_JCT294        3985.480000 7.053955   0.000000   15.000000  0.000000  
WS_JCT295        3985.930000 6.948290   0.000000   15.000000  0.000000  
WS_JCT298        3875.500000 20.000000  0.000000   0.000000   0.000000  
WS_JCT299        3996.000000 3.336994   0.000000   15.000000  0.000000  
WS_JCT304        4026.817000 0.760744   0.000000   15.000000  0.000000  
WS_JCT305        4023.317000 1.448000   0.000000   15.000000  0.000000  
WS_JCT306        4020.000000 4.084334   0.000000   15.000000  0.000000  
WS_JCT307        4018.000000 4.520011   0.000000   15.000000  0.000000  
WS_JCT308        4020.000000 4.063116   0.000000   15.000000  0.000000  
WS_JCT309        4022.000000 3.505722   0.000000   15.000000  0.000000  
WS_JCT310        3994.187000 21.256437  0.000000   0.000000   0.000000  
WS_JCT311        3994.023000 20.964517  0.000000   0.000000   0.000000  
WS_JCT312        4015.350000 2.207167   0.000000   15.000000  0.000000  
WS_JCT313        4008.700000 2.143017   0.000000   15.000000  0.000000  
WS_JCT314        4010.000000 3.577284   0.000000   15.000000  0.000000  
WS_JCT315        4008.000000 3.910060   0.000000   15.000000  0.000000  
WS_JCT316        4004.000000 5.777978   0.000000   15.000000  0.000000  
WS_JCT317        4006.000000 4.956328   0.000000   15.000000  0.000000  
WS_JCT318        3996.000000 6.616994   0.000000   15.000000  0.000000  
WS_JCT327        3957.520000 7.630439   0.000000   15.000000  0.000000  
WS_JCT328        3967.840000 7.306994   0.000000   15.000000  0.000000  
WS_JCT329        3988.560000 7.677167   0.000000   15.000000  0.000000  
WS_JCT330        4090.000000 4.915839   0.000000   15.000000  0.000000  