[TITLE]
;;Project Title/Notes

[OPTIONS]
;;Option             Value
FLOW_UNITS           LPS
INFILTRATION         HORTON
FLOW_ROUTING         DYNWAVE
LINK_OFFSETS         DEPTH
MIN_SLOPE            0
ALLOW_PONDING        YES
SKIP_STEADY_STATE    NO

IGNORE_SNOWMELT      YES
IGNORE_GROUNDWATER   YES
IGNORE_QUALITY       YES
START_DATE           01/01/2025
START_TIME           00:00:00
REPORT_START_DATE    01/01/2025
REPORT_START_TIME    00:00:00
END_DATE             01/07/2025
END_TIME             00:00:00
SWEEP_START          01/01
SWEEP_END            12/31
DRY_DAYS             5.000000
REPORT_STEP          00:01:00
WET_STEP             00:00:30
DRY_STEP             00:00:30
ROUTING_STEP         0:00:05 

INERTIAL_DAMPING     NONE
NORMAL_FLOW_LIMITED  BOTH
FORCE_MAIN_EQUATION  D-W
VARIABLE_STEP        0.75
LENGTHENING_STEP     10
MIN_SURFAREA         0
MAX_TRIALS           8
HEAD_TOLERANCE       0.000100
SYS_FLOW_TOL         5
LAT_FLOW_TOL         5
MINIMUM_STEP         0.5
THREADS              1

[EVAPORATION]
;;Data Source    Parameters
;;-------------- ----------------
MONTHLY          5.600000 6.200000 7.600000 10.600000 13.200000 12.600000 12.900000 13.100000 10.500000 9.000000 7.600000 5.500000
DRY_ONLY         NO

[RAINGAGES]
;;Name           Format    Interval SCF      Source    
;;-------------- --------- ------ ------ ----------
; DUBAI INTERNATIONAL AIRPORT
RG-1             INTENSITY 0.016667 1.000000 TIMESERIES 5YR-90MIN-4     
; DUBAI WORLD CENTRAL
RG-2             INTENSITY 0.016667 1.000000 TIMESERIES 5YR-90MIN-4     

[SUBCATCHMENTS]
;;Name           Rain Gage        Outlet           Area     %Imperv  Width    %Slope   CurbLen  SnowPack        
;;-------------- ---------------- ---------------- -------- -------- -------- -------- -------- ----------------
SUB-0017999181   RG-1             0017999181       1.055729 26.111408 51.271426 0.989817 609.739628                 
SUB-0030799134   RG-1             0030799134       2.560489 36.540310 72.452462 0.419630 1588.121454                 
SUB-0030999178   RG-1             0030999178       4.144244 37.453839 135.243297 0.797373 791.967893                 
SUB-0041699091   RG-1             0041699091       0.873250 38.280217 65.463642 0.446898 474.689046                 
SUB-0046599168   RG-1             0046599168       3.920407 35.496942 100.849655 0.424377 1928.370476                 
SUB-0049199381   RG-1             0049199381       5.403064 42.776897 121.603870 0.774485 1262.664915                 
SUB-0052398993   RG-1             0052398993       1.823305 27.589197 87.270191 0.559618 562.828800                 
SUB-0052999582   RG-1             0052999582       1.595567 40.000000 45.727212 1.043212 1455.669910                 
SUB-0053099623   RG-1             0053099623       0.284330 40.000000 20.756602 1.714799 547.931342                 
SUB-0053699540   RG-1             0053699540       1.807462 10.808554 107.975536 0.859920 520.490925                 
SUB-0053999668   RG-1             0053999668       1.847185 19.250469 49.920217 0.488650 1258.480094                 
SUB-0054699144   RG-1             0054699144       0.275927 49.993430 13.092167 0.695725 421.616870                 
SUB-0055900351   RG-1             0055900351       1.338348 39.999991 42.670391 0.352886 1333.167832                 
SUB-0057899711   RG-1             0057899711       0.483485 39.999996 22.693581 1.850406 972.277186                 
SUB-0058399057   RG-1             0058399057       1.088329 35.727834 67.832983 0.465724 426.822764                 
SUB-0059800356   RG-1             0059800356       4.114996 34.052943 117.053136 0.381197 1431.126000                 
SUB-0061599219   RG-1             0061599219       2.586852 41.026821 78.504091 1.148927 1595.605894                 
SUB-0061798844   RG-1             0061798844       1.105120 40.761515 48.253746 0.703919 584.969319                 
SUB-0062299787   RG-1             0062299787       0.461408 39.999975 28.597690 0.987101 645.377427                 
SUB-0063299385   RG-1             0063299385       1.031848 40.000203 41.264814 0.636133 977.532378                 
SUB-0066898899   RG-1             0066898899       1.469890 41.796605 66.255388 0.591170 916.461673                 
SUB-0068600192   RG-1             0068600192       3.566068 51.600730 116.749517 0.752836 1067.620175                 
SUB-0069899953   RG-1             0069899953       2.585606 22.534207 92.737681 0.868242 1014.803659                 
SUB-0069900213   RG-1             0069900213       0.652980 39.999970 30.707752 0.260142 920.639417                 
SUB-0070499925   RG-1             0070499925       0.339967 39.999965 29.043169 1.276975 468.222778                 
SUB-0070599058   RG-1             0070599058       3.389127 36.511194 93.291272 0.764298 1313.933896                 
SUB-0071098953   RG-1             0071098953       4.153186 43.133852 95.671511 0.510106 2241.850270                 
SUB-0073000152   RG-1             0073000152       2.338052 43.989352 92.443163 0.548918 586.615911                 
SUB-0074300016   RG-1             0074300016       0.754107 40.000054 76.759380 1.656816 383.461878                 
SUB-0074998722   RG-1             0074998722       3.981161 38.315467 154.770877 0.466693 2044.521177                 
SUB-0076400150   RG-1             0076400150       0.392286 39.999935 28.540214 0.772903 603.106077                 
SUB-0079800680   RG-1             0079800680       4.293852 29.284947 173.754737 0.437099 1577.250079                 
SUB-0082200357   RG-1             0082200357       8.578489 33.069671 211.990940 0.618215 2532.034330                 
SUB-0083100792   RG-1             0083100792       3.851771 37.182944 47.999529 0.274335 3058.167585                 
SUB-0084099993   RG-1             0084099993       21.128504 17.734790 256.654272 1.747987 6005.694453                 
SUB-0085299700   RG-1             0085299700       0.514137 48.869277 30.456546 2.678182 332.891041                 
SUB-0085499252   RG-1             0085499252       1.431958 37.719563 73.156102 0.590030 1198.539849                 
SUB-0085800776   RG-1             0085800776       5.637696 39.163916 146.191867 0.350460 2434.093250                 
SUB-0088899763   RG-1             0088899763       0.334953 46.741905 13.942042 2.184086 493.403352                 
SUB-0089498899   RG-1             0089498899       3.348963 36.800798 103.580388 0.526504 1703.261224                 
SUB-0090498633   RG-1             0090498633       2.575947 22.565674 99.203386 0.760627 1402.462832                 
SUB-0093699111   RG-1             0093699111       1.769540 44.138076 61.631572 0.495762 981.657544                 
SUB-0097700048   RG-1             0097700048       2.542145 40.202942 36.334735 0.851819 2818.980925                 
SUB-0097700082   RG-1             0097700082       2.370267 28.834496 68.972361 0.904052 1287.646319                 
SUB-0098098507   RG-1             0098098507       3.037900 38.191092 81.441802 0.497005 1047.141879                 
SUB-0104999585   RG-1             0104999585       0.615391 49.999832 32.790140 3.263638 375.351491                 
SUB-0106798937   RG-1             0106798937       1.138999 39.181705 58.234117 0.409272 542.235140                 
SUB-0107001121   RG-1             0107001121       5.910290 36.518543 226.541334 0.565980 2150.348792                 
SUB-0110798496   RG-1             0110798496       0.472815 49.986224 12.221633 0.475868 773.749124                 
SUB-0110998866   RG-1             0110998866       4.259058 41.392405 146.758851 0.436748 1011.946195                 
SUB-0112698372   RG-1             0112698372       0.589328 46.870891 39.492860 0.404734 314.680220                 
SUB-0115099521   RG-1             0115099521       11.560881 43.615888 235.716506 0.601612 810.431528                 
SUB-0115500084   RG-1             0115500084       2.086840 34.063071 100.693046 1.546702 1303.401252                 
SUB-0116098537   RG-1             0116098537       3.612930 36.139813 89.778603 0.443905 1516.583819                 
SUB-0117899056   RG-1             0117899056       3.445674 36.128493 132.096234 0.498914 1961.448308                 
SUB-0121099078   RG-1             0121099078       2.647625 40.533967 51.645779 1.008653 2175.850267                 
SUB-0121899094   RG-1             0121899094       0.502193 40.311335 52.731032 0.628608 451.817423                 
SUB-0122599088   RG-1             0122599088       8.103642 27.380570 155.105396 0.586615 2051.499647                 
SUB-0124099015   RG-1             0124099015       1.710791 38.335538 81.437061 0.436046 1085.706654                 
SUB-0124500085   RG-1             0124500085       7.756289 35.057477 213.096047 0.873079 2988.447826                 
SUB-0125399152   RG-1             0125399152       0.416438 45.492484 26.670940 0.792599 248.878993                 
SUB-0125498263   RG-1             0125498263       0.667449 40.000006 25.002044 0.337454 1189.145128                 
SUB-0128398508   RG-1             0128398508       5.596960 38.756985 151.647043 0.361309 1711.471392                 
SUB-0129899227   RG-1             0129899227       0.168729 39.361826 21.430467 0.345684 85.103607                 
SUB-0129998408   RG-1             0129998408       6.539518 14.545910 85.857055 0.416645 1750.258371                 
SUB-0133298931   RG-1             0133298931       0.397172 40.000131 20.866820 0.395471 761.345739                 
SUB-0133600087   RG-1             0133600087       0.581822 40.000006 63.346083 0.538192 579.575971                 
SUB-0133799293   RG-1             0133799293       0.225612 49.999964 26.664253 0.529179 169.224568                 
SUB-0136499393   RG-1             0136499393       23.703114 12.973534 326.916680 0.704217 5085.582809                 
SUB-0136800167   RG-1             0136800167       0.847175 40.000009 37.568479 1.464296 1015.663817                 
SUB-0138300356   RG-1             0138300356       13.010007 29.595862 168.978831 0.992238 4912.180867                 
SUB-0140599826   RG-1             0140599826       1.723409 40.000010 75.588977 0.350002 966.054265                 
SUB-0141298860   RG-1             0141298860       4.072831 42.319020 78.033425 0.524459 1634.157800                 
SUB-0142100067   RG-1             0142100067       0.498762 39.999995 52.368891 0.809014 380.960765                 
SUB-0144299382   RG-1             0144299382       0.770870 49.997439 30.236254 0.506773 680.328974                 
SUB-0144400828   RG-1             0144400828       12.393032 32.707439 186.253734 0.609265 3083.210664                 
SUB-0145998815   RG-1             0145998815       3.214570 41.991742 88.595242 0.355915 2036.435943                 
SUB-0145999326   RG-1             0145999326       8.986116 9.852014 129.652848 0.407853 1536.960671                 
SUB-0149598000   RG-1             0149598000       3.342664 56.085710 80.465982 0.362348 265.538627                 
SUB-0152200963   RG-1             0152200963       0.524662 37.518123 53.041361 0.590702 354.413009                 
SUB-0152999615   RG-1             0152999615       1.545468 39.997023 74.377752 0.376677 843.139698                 
SUB-0157099461   RG-1             0157099461       1.124429 39.974958 70.610962 0.311668 636.262029                 
SUB-0159698644   RG-1             0159698644       1.670605 40.649419 47.640972 0.411133 1540.137440                 
SUB-0159799437   RG-1             0159799437       1.652937 40.154716 73.503108 0.219243 1028.974321                 
SUB-0162798098   RG-1             0162798098       2.230893 10.394448 74.781508 0.449998 338.806036                 
SUB-0162898614   RG-1             0162898614       0.909683 39.999745 24.878304 0.268199 1470.377700                 
SUB-0165998620   RG-1             0165998620       2.385901 4.290624 55.398982 0.313475 715.207742                 
SUB-0170398605   RG-1             0170398605       0.691252 40.000000 19.300000 0.351059 1489.470942                 
SUB-0172798667   RG-1             0172798667       0.142540 40.000000 15.580531 0.545857 365.943536                 
SUB-0179398855   RG-1             0179398855       5.225166 27.261990 129.550762 0.438913 2844.044840                 
SUB-0180399089   RG-1             0180399089       1.714477 40.000013 76.955933 0.365910 891.147235                 
SUB-0181498494   RG-1             0181498494       2.541429 1.818687 101.328426 0.460701 322.964132                 
SUB-0184798238   RG-1             0184798238       9.755038 24.201433 127.980371 0.549484 534.467256                 
SUB-0187197724   RG-1             0187197724       1.737084 54.353839 64.587542 0.640162 878.430198                 
SUB-0187698781   RG-1             0187698781       1.324009 57.080384 75.236278 0.577947 383.776897                 
SUB-0188298432   RG-1             0188298432       5.908292 35.427247 122.778550 0.696119 1587.680228                 
SUB-0188398678   RG-1             0188398678       2.850475 27.065229 81.906203 0.536991 840.689216                 
SUB-0188998524   RG-1             0188998524       1.196173 40.240075 25.727944 0.996373 1978.055358                 
SUB-0190599058   RG-1             0190599058       6.683604 32.500469 60.708996 0.589938 4288.466033                 
SUB-0190697688   RG-1             0190697688       7.949246 23.192252 145.830380 0.481054 968.672623                 
SUB-0193598483   RG-1             0193598483       1.205597 40.000000 50.481310 0.749918 955.281607                 
SUB-0197998444   RG-1             0197998444       1.068425 40.000001 67.940678 0.969767 629.034099                 
SUB-0203797675   RG-1             0203797675       3.991855 40.714958 115.130962 0.351811 757.439069                 
SUB-0207997635   RG-1             0207997635       0.479127 50.000232 34.618311 0.296863 276.805005                 
SUB-0208098613   RG-1             0208098613       0.786181 49.999871 31.105570 0.416974 505.492112                 
SUB-0209598306   RG-1             0209598306       1.432289 39.999993 45.517782 0.720634 1258.662800                 
SUB-0209598690   RG-1             0209598690       0.949057 50.000084 36.075640 0.233197 526.147945                 
SUB-0209698762   RG-1             0209698762       0.743766 18.374005 27.322351 0.584222 306.593570                 
SUB-0210598333   RG-1             0210598333       1.947192 40.850019 55.257299 0.681152 1378.309823                 
SUB-0212095920   RG-1             0212095920       12.757440 54.810624 156.070590 0.881481 3660.389651                 
SUB-0212397874   RG-1             0212397874       0.585506 50.000000 36.560828 0.700993 320.291352                 
SUB-0214096480   RG-1             0214096480       13.370134 57.270912 193.692689 2.526897 2749.074211                 
SUB-0214197986   RG-1             0214197986       4.434164 44.598115 91.386791 0.313517 352.481560                 
SUB-0215998078   RG-1             0215998078       3.423579 26.846888 69.031211 0.756002 1956.348543                 
SUB-0217097544   RG-1             0217097544       0.704423 49.999990 38.846758 0.212430 362.667392                 
SUB-0220595848   RG-1             0220595848       6.714435 59.994324 130.155552 0.929488 61.118198                 
SUB-0222899024   RG-1             0222899024       2.151274 39.999999 64.646852 1.157592 1331.092926                 
SUB-0223098488   RG-1             0223098488       0.467292 49.999915 30.501259 0.464301 306.408565                 
SUB-0226696599   RG-1             0226696599       11.840753 60.000043 180.236903 1.546442 0.000000                 
SUB-0226898371   RG-1             0226898371       3.084871 8.581712 111.168034 0.401327 300.392667                 
SUB-0228596460   RG-1             0228596460       4.224361 53.013600 101.105065 0.939461 1020.183158                 
SUB-0229397158   RG-1             0229397158       0.618920 99.999999 17.097303 3.707980 723.996881                 
SUB-0230898598   RG-1             0230898598       3.035223 11.285152 128.667686 0.336194 230.922318                 
SUB-0231398075   RG-1             0231398075       9.598625 47.887753 125.683876 0.394008 2885.273441                 
SUB-0231798102   RG-1             0231798102       2.563555 60.953134 63.533493 1.650925 1029.962998                 
SUB-0231798652   RG-1             0231798652       38.988489 7.983052 253.242398 0.444895 7905.854199                 
SUB-0232798361   RG-1             0232798361       2.083397 26.411982 69.830484 0.441980 658.287226                 
SUB-0233897177   RG-1             0233897177       2.538811 40.011622 33.060975 15.856988 3150.774153                 
SUB-0234398171   RG-1             0234398171       1.795666 43.021732 52.944850 2.523854 1658.295058                 
SUB-0234495781   RG-1             0234495781       4.462703 29.647319 58.613974 0.852105 1732.190382                 
SUB-0234797999   RG-1             0234797999       7.932892 4.780840 113.708646 0.358472 305.024523                 
SUB-0236796666   RG-1             0236796666       4.822137 60.000000 154.766117 0.384071 0.000000                 
SUB-0237397134   RG-1             0237197132       1.079967 39.999996 40.645275 10.220613 1080.770334                 
SUB-0238198188   RG-1             0238198188       0.779279 40.000000 36.527108 0.727206 1065.931329                 
SUB-0239398266   RG-1             0239398266       2.328009 40.055268 34.767827 1.132324 2843.394765                 
SUB-0241395762   RG-1             0241395762       23.881819 0.000996 422.797294 1.703517 593.635026                 
SUB-0241997265   RG-1             0241997265       2.803339 41.313787 100.963136 1.308305 1399.323185                 
SUB-0244596774   RG-1             0244596774       7.865379 60.000018 78.443173 1.092327 0.000000                 
SUB-0244698151   RG-1             0244698151       0.782657 40.000000 33.800906 2.401094 926.195935                 
SUB-0245199187   RG-1             0245199187       1.691741 40.000001 62.496620 1.103058 1082.772894                 
SUB-0248197071   RG-1             0248197071       0.548447 40.000000 26.065502 15.232351 841.645015                 
SUB-0248297346   RG-1             0248297346       2.068235 7.099115 131.888777 0.350412 558.180442                 
SUB-0251899332   RG-1             0251899332       1.873884 37.835017 73.039344 0.565304 1101.275853                 
SUB-0252598031   RG-1             0252598031       0.961238 20.714014 60.465434 7.640395 386.883534                 
SUB-0254397425   RG-1             0254397425       1.029671 40.832334 46.801473 0.928352 939.570271                 
SUB-0256195756   RG-1             0256195756       7.919780 54.211698 118.716829 0.973016 1880.322343                 
SUB-0256997898   RG-1             0256997898       0.223006 40.000018 21.767583 0.779342 409.794246                 
SUB-0256997960   RG-1             0256997960       0.212851 40.000000 20.725227 2.196091 410.806178                 
SUB-0259697956   RG-1             0259697956       3.217615 40.000000 117.415719 3.173704 1096.144413                 
SUB-0266297842   RG-1             0266297842       2.545238 40.463912 41.720623 0.629647 2016.029109                 
SUB-0266495757   RG-1             0266495757       6.042149 35.426617 113.309490 1.221173 3951.948532                 
SUB-0268198430   RG-1             0268198430       4.506537 40.000000 69.406532 2.683521 2597.183150                 
SUB-0268298982   RG-1             0268298982       5.443907 36.808176 79.796298 0.617929 2586.795544                 
SUB-0268697941   RG-1             0268697941       5.516291 40.076599 130.295419 2.551831 1655.607844                 
SUB-0270997893   RG-1             0270997893       0.327296 40.434250 38.815538 0.885506 390.711568                 
SUB-0271296809   RG-1             0271296809       1.912665 47.774561 53.004563 6.505410 991.591058                 
SUB-0271397909   RG-1             0271397909       0.233694 40.000000 20.281200 1.053875 460.908517                 
SUB-0273696839   RG-1             0273696839       7.512565 58.528828 170.231489 1.668379 418.329474                 
SUB-0275298418   RG-1             0275298418       7.901208 40.000669 126.328682 2.081913 2822.520992                 
SUB-0276296884   RG-1             0276296884       42.812591 37.807567 324.031376 2.987854 9901.339445                 
SUB-0276896908   RG-1             0276896908       0.073435 40.000000 19.118727 13.927711 153.638938                 
SUB-0277296923   RG-1             0277296923       3.196457 40.006934 52.364973 6.479662 2512.416271                 
SUB-0281297888   RG-1             0281297888       6.662885 17.481670 153.372138 0.551553 1861.763060                 
SUB-0286195745   RG-1             0286195745       2.832631 26.401292 98.567141 1.510005 1039.398481                 
SUB-0288197870   RG-1             0288197870       0.137167 48.671199 6.381822 0.737424 484.537930                 
SUB-0290197158   RG-1             0290197158       10.027896 2.181826 208.606969 1.700319 2551.999756                 
SUB-0294297167   RG-1             0294297167       19.169799 46.272870 158.771628 1.058067 3264.837635                 
SUB-0297198412   RG-1             0297198412       0.397744 49.999990 36.342650 0.231332 218.885547                 
SUB-0297397257   RG-1             0297397257       0.261404 39.999980 21.664664 0.810844 482.636320                 
SUB-0298398485   RG-1             0298398485       1.303706 37.281482 62.913877 0.819729 492.189373                 
SUB-0299398545   RG-1             0299398545       0.836860 49.999925 34.149012 0.828379 490.122764                 
SUB-0300598620   RG-1             0300598620       23.114957 42.470633 303.687150 0.817544 8331.198476                 
SUB-0305598253   RG-1             0305598253       4.498340 54.327556 115.307720 1.189293 1298.703478                 
SUB-0306998338   RG-1             0306998338       17.887102 39.980580 100.065062 0.488042 8501.392215                 
SUB-0307198357   RG-1             0307198357       12.372866 19.530792 335.659346 0.297543 1890.661459                 
SUB-0308697797   RG-1             0308697797       0.536495 49.999982 29.785279 0.275609 360.241815                 
SUB-0308797375   RG-1             0308797375       2.772721 38.136130 60.613719 0.931396 1671.494792                 
SUB-0310597632   RG-1             0310597632       3.199322 8.300123 73.503595 0.396752 1420.266442                 
SUB-0312297670   RG-1             0312297670       22.275937 17.177243 189.155519 0.562431 3339.180340                 
SUB-0314295977   RG-1             0314295977       50.575917 38.591794 269.341373 2.385226 21475.717105                 
SUB-0314397614   RG-1             0314397614       0.985379 40.702076 37.932660 0.686469 1095.939675                 
SUB-0315797333   RG-1             0315797333       2.243576 37.157102 50.221173 0.833819 671.675498                 
SUB-0316497756   RG-1             0316497756       2.459868 30.226776 91.125976 0.327156 1527.188707                 
SUB-0318197681   RG-1             0318197681       0.252841 34.251119 28.943995 1.711372 125.866380                 
SUB-0321597728   RG-1             0321597728       0.139122 3.369850 11.741840 1.184559 29.472624                 
SUB-0322097748   RG-1             0322097748       0.142560 2.247277 20.841556 0.535714 21.983418                 
SUB-0322498133   RG-1             0322498133       2.427968 51.302570 54.629317 0.614046 1457.914451                 
SUB-0324597779   RG-1             0324597779       0.247105 40.538099 31.267490 0.401224 301.240525                 
SUB-0325597798   RG-1             0325597798       0.655065 3.376727 16.423017 1.243716 129.394832                 
SUB-0328497780   RG-1             0328497780       5.657378 53.079227 147.415300 0.661783 1126.827275                 
SUB-0329595616   RG-1             0329595616       9.301909 23.773495 147.891785 1.252344 3730.742711                 
SUB-0332897224   RG-1             0332897224       2.795791 39.141536 55.037670 0.874441 1015.208123                 
SUB-0335598153   RG-1             0335598153       2.082435 31.486440 68.039895 0.486649 588.813240                 
SUB-0336595575   RG-1             0336595575       7.483662 6.861154 158.448735 0.531000 1515.490474                 
SUB-0338297900   RG-1             0338297900       6.298329 40.000048 97.229009 0.795786 3306.972721                 
SUB-0340598195   RG-1             0340598195       19.894990 39.023785 222.505493 0.454208 8001.865046                 
SUB-0341297171   RG-1             0341297171       3.218318 40.150460 129.046801 1.243716 0.000000                 
SUB-0344295665   RG-1             0344295665       17.381498 41.434356 171.721507 0.596727 10389.235690                 
SUB-0347897129   RG-1             0347897129       10.862213 34.583391 69.983009 0.706330 4259.372169                 
SUB-0348295726   RG-1             0348295726       5.040478 12.529393 144.846038 0.906749 1456.813347                 
SUB-0349295494   RG-1             0349295494       4.888251 6.226092 137.330204 0.391651 729.518526                 
SUB-0349297842   RG-1             0349297842       1.790992 42.665535 25.581906 0.961527 1892.615302                 
SUB-0349695749   RG-1             0349695749       29.109189 41.572186 248.694107 0.852363 15451.885000                 
SUB-0350598096   RG-1             0350598096       3.421351 41.685936 65.589033 0.461802 2997.336668                 
SUB-0353497907   RG-1             0353497907       3.289550 41.626389 87.291740 0.596754 2685.296131                 
SUB-0357197070   RG-1             0357197070       0.458723 50.000060 29.521815 0.661778 310.768522                 
SUB-0357695439   RG-1             0357695439       3.439446 6.996737 98.372171 0.273483 409.239394                 
SUB-0366095385   RG-1             0366095385       0.630298 39.185284 59.758590 0.436610 420.675861                 
SUB-0366597010   RG-1             0366597010       15.859957 43.127676 164.542244 0.608683 4604.117834                 
SUB-0374298397   RG-1             0374298397       4.307859 30.930878 67.682400 0.713217 3463.610621                 
SUB-0375495324   RG-1             0375495324       5.798269 4.167583 166.702334 1.170279 797.908243                 
SUB-0382598324   RG-1             0382598324       1.454448 55.851366 43.424761 0.673841 538.467007                 
SUB-0382895276   RG-1             0382895276       0.558985 39.999891 59.626446 1.830176 374.992370                 
SUB-0386496876   RG-1             0386496876       28.363433 39.658772 351.014683 1.319040 11464.600572                 
SUB-0387197692   RG-1             0387197692       2.816013 40.567629 59.480624 0.326146 2480.229562                 
SUB-0389998277   RG-1             0389998277       5.666441 36.440773 103.322880 0.766350 1868.962284                 
SUB-0391295222   RG-1             0391295222       0.719521 39.998636 56.916686 0.594003 503.344452                 
SUB-0402298199   RG-1             0402298199       45.399760 29.464319 243.230244 0.656105 13190.355589                 
SUB-0403095147   RG-1             0403095147       18.427935 2.506122 275.103776 0.457800 896.000715                 
SUB-0403096770   RG-1             0403096770       13.209423 30.588711 238.769116 0.860496 1530.871651                 
SUB-0405595143   RG-1             0405595143       4.967138 45.310784 109.895564 1.451974 2372.876444                 
SUB-0410395161   RG-1             0410395161       0.640876 40.000000 25.269119 0.601142 1014.480246                 
SUB-0410696720   RG-1             0410696720       21.395849 41.344699 369.315316 0.918413 5873.004890                 
SUB-0411398140   RG-1             0411398140       2.270028 46.202810 26.411824 0.377285 2532.530517                 
SUB-0412888452   RG-1             0412888452       2.682291 35.959112 76.871309 1.721444 1974.175729                 
SUB-0413195143   RG-1             0413195143       24.561829 36.633831 161.629461 0.546972 13639.433672                 
SUB-0414595073   RG-1             0414595073       42.980344 34.455993 150.904574 0.649838 17152.608989                 
SUB-0415688079   RG-1             0415688079       4.352123 39.999466 113.533149 1.033922 1524.726127                 
SUB-0416996680   RG-1             0416996680       5.895613 44.272922 45.003065 0.693711 5864.617258                 
SUB-0419796662   RG-1             0419796662       25.444648 34.970877 241.564731 1.360748 10576.462274                 
SUB-0420197480   RG-1             0420197480       36.791635 48.268493 470.499084 0.625935 2616.473457                 
SUB-0423588423   RG-1             0423588423       10.306542 40.015184 110.829260 1.700873 4060.782113                 
SUB-0425996758   RG-1             0425996758       3.322676 40.452185 35.984434 0.542837 3911.547228                 
SUB-0428388317   RG-1             0428388317       0.581709 39.998037 44.246033 2.109612 559.611132                 
SUB-0431197410   RG-1             0431197410       2.012626 40.016458 36.347277 0.458054 2316.358290                 
SUB-0433596710   RG-1             0433596710       3.464887 45.665292 94.556438 0.802598 1508.489267                 
SUB-0436587866   RG-1             0436587866       2.371059 27.079591 81.960980 0.981844 709.452788                 
SUB-0440388008   RG-1             0440388008       14.137232 38.241603 133.000634 1.618503 5709.548795                 
SUB-0443987846   RG-1             0443987846       8.651474 38.569678 244.400938 1.675868 2772.489626                 