[TITLE]
;;Project Title/Notes
Scenario Run :  SCN-32

[OPTIONS]
;;Option             Value
FLOW_UNITS           CFS
INFILTRATION         HORTON
FLOW_ROUTING         DYNWAVE
LINK_OFFSETS         DEPTH
MIN_SLOPE            0.100000
ALLOW_PONDING        YES
SKIP_STEADY_STATE    NO

START_DATE           12/30/2001
START_TIME           00:00:00
REPORT_START_DATE    12/31/2001
REPORT_START_TIME    00:00:00
END_DATE             12/31/2001
END_TIME             23:55:00
SWEEP_START          12/30
SWEEP_END            12/31
DRY_DAYS             0.000000
REPORT_STEP          00:05:00
WET_STEP             00:05:00
DRY_STEP             00:05:00
ROUTING_STEP         0:00:30 

INERTIAL_DAMPING     NONE
NORMAL_FLOW_LIMITED  BOTH
FORCE_MAIN_EQUATION  H-W
VARIABLE_STEP        0.75
LENGTHENING_STEP     10
MIN_SURFAREA         12.557
MAX_TRIALS           8
HEAD_TOLERANCE       0.005
SYS_FLOW_TOL         5
LAT_FLOW_TOL         5
MINIMUM_STEP         0
THREADS              1

[EVAPORATION]
;;Data Source    Parameters
;;-------------- ----------------
CONSTANT         0.000000
DRY_ONLY         NO

[RAINGAGES]
;;Name           Format    Interval SCF      Source    
;;-------------- --------- ------ ------ ----------
9                INTENSITY 0:05     1.000000 TIMESERIES 2149-1          
R1               INTENSITY 0.083333 1.000000 TIMESERIES 2149-1          

[SUBCATCHMENTS]
;;Name           Rain Gage        Outlet           Area     %Imperv  Width    %Slope   CurbLen  SnowPack        
;;-------------- ---------------- ---------------- -------- -------- -------- -------- -------- ----------------
NO12223602       R1               12223602         2.025018 4.210526 171.918126 16.059494 0.000000                 
NO12224602       R1               12224602         1.771677 4.761905 171.010038 12.607317 0.000000                 
NO12224801       R1               12224801         2.620742 100.000000 309.235486 0.772727 0.000000                 
NO12225701       R1               12225701         1.073964 100.000000 249.091126 1.292453 0.000000                 
NO12225702       R1               12225702         2.404695 100.000000 272.202900 0.769231 0.000000                 
NO12226802       R1               12226802         1.003554 100.000000 278.037345 12.218045 0.000000                 
NO12226901       R1               12226901         1.162427 100.000000 253.911163 7.295455 0.000000                 
NO12232709       R1               12232709         2.112792 7.407407 232.916635 1.724138 0.000000                 
NO12232906       R1               12232906         2.404733 100.000000 246.218705 0.418037 0.000000                 
NO12233001       R1               12233001         0.144445 100.000000 119.606702 15.391304 0.000000                 
NO12233302       R1               12233302         1.269448 100.000000 207.197481 1.458333 0.000000                 
NO12233306       R1               12233306         1.361247 100.000000 299.797366 1.388889 0.000000                 
NO12233401       R1               12233401         1.020214 100.000000 179.303292 6.639786 0.000000                 
NO12233601       R1               12233601         0.263257 100.000000 151.042357 15.731343 0.000000                 
NO12233602       R1               12233602         1.126488 100.000000 266.453227 7.304348 0.000000                 
NO12233703       R1               12233703         0.587772 100.000000 162.140910 9.186667 0.000000                 
NO12233902       R1               12233902         0.355155 100.000000 109.593831 3.933333 0.000000                 
NO12234006       R1               12234006         0.291351 100.000000 120.115317 18.400000 0.000000                 
NO12234011       R1               12234011         0.846442 4.651163 116.820326 1.357143 0.000000                 
NO12234022       R1               12234022         0.745894 100.000000 169.494792 0.000000 0.000000                 
NO12234301       R1               12234301         1.080338 100.000000 273.674193 15.095238 0.000000                 
NO12234302       R1               12234302         0.433514 100.000000 155.060272 6.833333 0.000000                 
NO12234503       R1               12234503         1.487147 100.000000 262.171430 8.228395 0.000000                 
NO12234913       R1               12234913         1.860367 100.000000 253.944235 7.784766 0.000000                 
NO12235001       R1               12235001         0.421192 100.000000 254.734487 8.846154 0.000000                 
NO12235401       R1               12235401         0.564430 100.000000 161.515270 12.686567 0.000000                 
NO12235402       R1               12235402         0.284477 100.000000 209.349147 11.485714 0.000000                 
NO12235601       R1               12235601         1.066723 100.000000 279.008831 11.431373 0.000000                 
NO12235702       R1               12235702         1.883600 100.000000 265.682236 11.531792 0.000000                 
NO12236401       R1               12236401         1.344467 100.000000 331.146101 6.883333 0.000000                 
NO12236501       R1               12236501         0.895216 100.000000 249.125280 8.350427 0.000000                 
NO12236502       R1               12236502         0.399978 100.000000 170.848064 5.497799 0.000000                 
NO12236901       R1               12236901         0.786769 100.000000 239.616078 5.800000 0.000000                 
NO12237502       R1               12237502         0.328968 100.000000 168.844181 8.784861 0.000000                 
NO12238602       R1               12238602         0.517339 100.000000 282.315949 5.975410 0.000000                 
NO12238801       R1               12238801         7.635886 7.017544 430.984148 7.378698 0.000000                 
NO12239301       R1               12239301         4.691210 4.651163 275.018682 7.958333 0.000000                 
NO12239501       R1               12239501         0.669346 100.000000 185.401129 4.318182 0.000000                 
NO12239502       R1               12239502         0.908422 100.000000 234.017768 5.895522 0.000000                 
NO12239503       R1               12239503         0.316229 100.000000 148.065792 7.611465 0.000000                 
NO12240301       R1               12240301         0.672503 100.000000 234.202640 0.016949 0.000000                 
NO12241002       R1               12241002         0.831588 100.000000 223.902611 0.777778 0.000000                 
NO12241202       R1               12241202         2.073519 100.000000 250.002336 0.191489 0.000000                 
NO12241402       R1               12241402         1.329074 100.000000 236.312442 2.571429 0.000000                 
NO12241501       R1               12241501         0.586149 100.000000 250.035315 1.624629 0.000000                 
NO12242003       R1               12242003         0.922614 100.000000 155.360650 1.097561 0.000000                 
NO12242201       R1               12242201         0.915324 100.000000 178.125611 1.430769 0.000000                 
NO12242304       R1               12242304         1.028401 100.000000 178.009827 7.619648 0.000000                 
NO12243001       R1               12243001         0.703125 100.000000 215.464486 3.739726 0.000000                 
NO12243201       R1               12243201         0.662365 100.000000 199.826856 6.806452 0.000000                 
NO12243305       R1               12243305         1.439536 100.000000 257.940573 3.269231 0.000000                 
NO12243401       R1               12243401         1.523785 100.000000 235.797456 3.617021 0.000000                 
NO12244001       R1               12244001         0.826034 100.000000 233.538423 3.835052 0.000000                 
NO12244005       R1               12244005         1.193291 100.000000 200.886229 1.888889 0.000000                 
NO12244202       R1               12244202         0.729816 100.000000 193.594820 5.803922 0.000000                 
NO12244403       R1               12244403         0.712688 100.000000 191.309608 3.434783 0.000000                 
NO12244502       R1               12244502         0.831685 100.000000 234.335824 2.414414 0.000000                 
NO12244601       R1               12244601         0.755115 100.000000 264.198160 2.530303 0.000000                 
NO12245201       R1               12245201         1.507666 100.000000 273.238945 5.873239 0.000000                 
NO12245602       R1               12245602         1.617543 100.000000 239.808551 3.681481 0.000000                 
NO12245701       R1               12245701         1.357903 100.000000 225.581026 2.318750 0.000000                 
NO12246201       R1               12246201         2.534585 100.000000 265.116913 0.361702 0.000000                 
NO12246202       R1               12246202         1.306242 100.000000 245.708550 4.040000 0.000000                 
NO12246303       R1               12246303         0.888292 100.000000 202.621841 1.268293 0.000000                 
NO12246404       R1               12246404         0.712138 100.000000 211.855513 2.227273 0.000000                 
NO12246501       R1               12246501         0.361674 100.000000 171.752457 1.818182 0.000000                 
NO12246503       R1               12246503         0.433666 100.000000 165.323828 0.909091 0.000000                 
NO12246602       R1               12246602         0.348954 100.000000 145.040492 1.805556 0.000000                 
NO12247303       R1               12247303         1.226796 100.000000 227.037773 2.578125 0.000000                 
NO12247402       R1               12247402         0.594253 100.000000 189.273947 2.523810 0.000000                 
NO12247501       R1               12247501         0.522381 100.000000 185.717654 2.980392 0.000000                 
NO12247704       R1               12247704         0.867609 100.000000 228.700506 0.213483 0.000000                 
NO12248502       R1               12248502         0.352667 100.000000 145.810081 1.216667 0.000000                 
NO12248505       R1               12248505         0.566371 100.000000 188.933214 2.717391 0.000000                 
NO12248702       R1               12248702         0.359883 100.000000 157.955459 0.541667 0.000000                 
NO12248703       R1               12248703         0.831421 100.000000 246.321654 0.988954 0.000000                 
NO12249704       R1               12249704         0.388201 100.000000 138.649443 8.355556 0.000000                 
NO12249803       R1               12249803         0.905164 100.000000 204.537042 0.270270 0.000000                 
NO13230603       R1               13230603         0.396258 100.000000 158.032584 6.860465 0.000000                 
NO13230701       R1               13230701         0.968968 100.000000 252.937939 5.672043 0.000000                 
NO13230803       R1               13230803         0.880075 100.000000 247.009674 3.211538 0.000000                 
NO13231601       R1               13231601         1.055512 100.000000 263.992064 4.573171 0.000000                 
NO13231602       R1               13231602         1.134011 100.000000 255.959899 4.314815 0.000000                 
NO13232701       R1               13232701         1.165330 100.000000 244.631004 5.000000 0.000000                 
NO13233503       R1               13233503         1.038749 100.000000 255.866230 4.536458 0.000000                 
NO13233601       R1               13233601         0.849228 100.000000 217.025628 5.803922 0.000000                 
NO13233804       R1               13233804         1.056939 100.000000 252.423697 6.049505 0.000000                 
NO13234601       R1               13234601         0.769590 100.000000 210.859484 3.808081 0.000000                 
NO13234803       R1               13234803         1.304813 100.000000 258.857754 6.308411 0.000000                 
NO13237501       R1               13237501         0.645281 100.000000 273.056611 11.214765 0.000000                 
NO13237601       R1               13237601         0.607265 100.000000 179.958066 3.322034 0.000000                 
NO13240602       R1               13240602         0.334047 100.000000 108.978345 1.619048 0.000000                 

[SUBAREAS]
;;Subcatchment   N-Imperv   N-Perv     S-Imperv   S-Perv     PctZero    RouteTo    PctRouted 
;;-------------- ---------- ---------- ---------- ---------- ---------- ---------- ----------
NO12223602       0.010000   0.100000   0.006975   0.027508   0.000000   OUTLET    
NO12224602       0.010000   0.100000   0.007873   0.031047   0.000000   OUTLET    
NO12224801       0.010000   0.100000   0.031799   0.000000   0.000000   OUTLET    
NO12225701       0.010000   0.100000   0.024588   0.000000   0.000000   OUTLET    
NO12225702       0.010000   0.100000   0.031871   0.000000   0.000000   OUTLET    
NO12226802       0.010000   0.100000   0.007997   0.000000   0.000000   OUTLET    
NO12226901       0.010000   0.100000   0.010349   0.000000   0.000000   OUTLET    
NO12232709       0.010000   0.100000   0.021288   0.083953   0.000000   OUTLET    
NO12232906       0.010000   0.100000   0.043233   0.000000   0.000000   OUTLET    
NO12233001       0.010000   0.100000   0.007125   0.000000   0.000000   OUTLET    
NO12233302       0.010000   0.100000   0.023147   0.000000   0.000000   OUTLET    
NO12233306       0.010000   0.100000   0.023719   0.000000   0.000000   OUTLET    
NO12233401       0.010000   0.100000   0.010848   0.000000   0.000000   OUTLET    
NO12233601       0.010000   0.100000   0.007048   0.000000   0.000000   OUTLET    
NO12233602       0.010000   0.100000   0.010343   0.000000   0.000000   OUTLET    
NO12233703       0.010000   0.100000   0.009222   0.000000   0.000000   OUTLET    
NO12233902       0.010000   0.100000   0.014094   0.000000   0.000000   OUTLET    
NO12234006       0.010000   0.100000   0.006517   0.000000   0.000000   OUTLET    
NO12234011       0.010000   0.100000   0.023995   0.094626   0.000000   OUTLET    
NO12234022       0.010000   0.100000   0.000000   0.000000   0.000000   OUTLET    
NO12234301       0.010000   0.100000   0.007195   0.000000   0.000000   OUTLET    
NO12234302       0.010000   0.100000   0.010693   0.000000   0.000000   OUTLET    
NO12234503       0.010000   0.100000   0.009745   0.000000   0.000000   OUTLET    
NO12234913       0.010000   0.100000   0.010018   0.000000   0.000000   OUTLET    
NO12235001       0.010000   0.100000   0.009398   0.000000   0.000000   OUTLET    
NO12235401       0.010000   0.100000   0.007848   0.000000   0.000000   OUTLET    
NO12235402       0.010000   0.100000   0.008248   0.000000   0.000000   OUTLET    
NO12235601       0.010000   0.100000   0.008268   0.000000   0.000000   OUTLET    
NO12235702       0.010000   0.100000   0.008231   0.000000   0.000000   OUTLET    
NO12236401       0.010000   0.100000   0.010654   0.000000   0.000000   OUTLET    
NO12236501       0.010000   0.100000   0.009673   0.000000   0.000000   OUTLET    
NO12236502       0.010000   0.100000   0.011921   0.000000   0.000000   OUTLET    
NO12236901       0.010000   0.100000   0.011607   0.000000   0.000000   OUTLET    
NO12237502       0.010000   0.100000   0.009431   0.000000   0.000000   OUTLET    
NO12238602       0.010000   0.100000   0.011435   0.000000   0.000000   OUTLET    
NO12238801       0.010000   0.100000   0.010290   0.040582   0.000000   OUTLET    
NO12239301       0.010000   0.100000   0.009909   0.039076   0.000000   OUTLET    
NO12239501       0.010000   0.100000   0.013452   0.000000   0.000000   OUTLET    
NO12239502       0.010000   0.100000   0.011512   0.000000   0.000000   OUTLET    
NO12239503       0.010000   0.100000   0.010132   0.000000   0.000000   OUTLET    
NO12240301       0.010000   0.100000   0.214709   0.000000   0.000000   OUTLET    
NO12241002       0.010000   0.100000   0.031695   0.000000   0.000000   OUTLET    
NO12241202       0.010000   0.100000   0.063878   0.000000   0.000000   OUTLET    
NO12241402       0.010000   0.100000   0.017432   0.000000   0.000000   OUTLET    
NO12241501       0.010000   0.100000   0.021930   0.000000   0.000000   OUTLET    
NO12242003       0.010000   0.100000   0.026682   0.000000   0.000000   OUTLET    
NO12242201       0.010000   0.100000   0.023369   0.000000   0.000000   OUTLET    
NO12242304       0.010000   0.100000   0.010126   0.000000   0.000000   OUTLET    
NO12243001       0.010000   0.100000   0.014455   0.000000   0.000000   OUTLET    
NO12243201       0.010000   0.100000   0.010714   0.000000   0.000000   OUTLET    
NO12243305       0.010000   0.100000   0.015460   0.000000   0.000000   OUTLET    
NO12243401       0.010000   0.100000   0.014698   0.000000   0.000000   OUTLET    
NO12244001       0.010000   0.100000   0.014274   0.000000   0.000000   OUTLET    
NO12244005       0.010000   0.100000   0.020339   0.000000   0.000000   OUTLET    
NO12244202       0.010000   0.100000   0.011603   0.000000   0.000000   OUTLET    
NO12244403       0.010000   0.100000   0.015083   0.000000   0.000000   OUTLET    
NO12244502       0.010000   0.100000   0.017989   0.000000   0.000000   OUTLET    
NO12244601       0.010000   0.100000   0.017573   0.000000   0.000000   OUTLET    
NO12245201       0.010000   0.100000   0.011534   0.000000   0.000000   OUTLET    
NO12245602       0.010000   0.100000   0.014568   0.000000   0.000000   OUTLET    
NO12245701       0.010000   0.100000   0.018357   0.000000   0.000000   OUTLET    
NO12246201       0.010000   0.100000   0.046478   0.000000   0.000000   OUTLET    
NO12246202       0.010000   0.100000   0.013907   0.000000   0.000000   OUTLET    
NO12246303       0.010000   0.100000   0.024821   0.000000   0.000000   OUTLET    
NO12246404       0.010000   0.100000   0.018730   0.000000   0.000000   OUTLET    
NO12246501       0.010000   0.100000   0.020730   0.000000   0.000000   OUTLET    
NO12246503       0.010000   0.100000   0.029317   0.000000   0.000000   OUTLET    
NO12246602       0.010000   0.100000   0.020803   0.000000   0.000000   OUTLET    
NO12247303       0.010000   0.100000   0.017409   0.000000   0.000000   OUTLET    
NO12247402       0.010000   0.100000   0.017595   0.000000   0.000000   OUTLET    
NO12247501       0.010000   0.100000   0.016192   0.000000   0.000000   OUTLET    
NO12247704       0.010000   0.100000   0.060498   0.000000   0.000000   OUTLET    
NO12248502       0.010000   0.100000   0.025342   0.000000   0.000000   OUTLET    
NO12248505       0.010000   0.100000   0.016957   0.000000   0.000000   OUTLET    
NO12248702       0.010000   0.100000   0.037980   0.000000   0.000000   OUTLET    
NO12248703       0.010000   0.100000   0.028108   0.000000   0.000000   OUTLET    
NO12249704       0.010000   0.100000   0.009670   0.000000   0.000000   OUTLET    
NO12249803       0.010000   0.100000   0.053768   0.000000   0.000000   OUTLET    
NO13230603       0.010000   0.100000   0.010672   0.000000   0.000000   OUTLET    
NO13230701       0.010000   0.100000   0.011737   0.000000   0.000000   OUTLET    
NO13230803       0.010000   0.100000   0.015598   0.000000   0.000000   OUTLET    
NO13231601       0.010000   0.100000   0.013071   0.000000   0.000000   OUTLET    
NO13231602       0.010000   0.100000   0.013457   0.000000   0.000000   OUTLET    
NO13232701       0.010000   0.100000   0.012501   0.000000   0.000000   OUTLET    
NO13233503       0.010000   0.100000   0.013124   0.000000   0.000000   OUTLET    
NO13233601       0.010000   0.100000   0.011603   0.000000   0.000000   OUTLET    
NO13233804       0.010000   0.100000   0.011365   0.000000   0.000000   OUTLET    
NO13234601       0.010000   0.100000   0.014324   0.000000   0.000000   OUTLET    
NO13234803       0.010000   0.100000   0.011129   0.000000   0.000000   OUTLET    
NO13237501       0.010000   0.100000   0.008347   0.000000   0.000000   OUTLET    
NO13237601       0.010000   0.100000   0.015336   0.000000   0.000000   OUTLET    
NO13240602       0.010000   0.100000   0.021968   0.000000   0.000000   OUTLET    

[INFILTRATION]
;;Subcatchment   MaxRate    MinRate    Decay      DryTime    MaxInfil  
;;-------------- ---------- ---------- ---------- ---------- ----------
NO12223602       3.0        0.5        4          7          0         
NO12224602       3.0        0.5        4          7          0         
NO12224801       3.0        0.5        4          7          0         
NO12225701       3.0        0.5        4          7          0         
NO12225702       3.0        0.5        4          7          0         
NO12226802       3.0        0.5        4          7          0         
NO12226901       3.0        0.5        4          7          0         
NO12232709       3.0        0.5        4          7          0         
NO12232906       3.0        0.5        4          7          0         
NO12233001       3.0        0.5        4          7          0         
NO12233302       3.0        0.5        4          7          0         
NO12233306       3.0        0.5        4          7          0         
NO12233401       3.0        0.5        4          7          0         
NO12233601       3.0        0.5        4          7          0         
NO12233602       3.0        0.5        4          7          0         
NO12233703       3.0        0.5        4          7          0         
NO12233902       3.0        0.5        4          7          0         
NO12234006       3.0        0.5        4          7          0         
NO12234011       3.0        0.5        4          7          0         
NO12234022       3.0        0.5        4          7          0         
NO12234301       3.0        0.5        4          7          0         
NO12234302       3.0        0.5        4          7          0         
NO12234503       3.0        0.5        4          7          0         
NO12234913       3.0        0.5        4          7          0         
NO12235001       3.0        0.5        4          7          0         
NO12235401       3.0        0.5        4          7          0         
NO12235402       3.0        0.5        4          7          0         
NO12235601       3.0        0.5        4          7          0         
NO12235702       3.0        0.5        4          7          0         
NO12236401       3.0        0.5        4          7          0         
NO12236501       3.0        0.5        4          7          0         
NO12236502       3.0        0.5        4          7          0         
NO12236901       3.0        0.5        4          7          0         
NO12237502       3.0        0.5        4          7          0         
NO12238602       3.0        0.5        4          7          0         
NO12238801       3.0        0.5        4          7          0         
NO12239301       3.0        0.5        4          7          0         
NO12239501       3.0        0.5        4          7          0         
NO12239502       3.0        0.5        4          7          0         
NO12239503       3.0        0.5        4          7          0         
NO12240301       3.0        0.5        4          7          0         
NO12241002       3.0        0.5        4          7          0         
NO12241202       3.0        0.5        4          7          0         
NO12241402       3.0        0.5        4          7          0         
NO12241501       3.0        0.5        4          7          0         
NO12242003       3.0        0.5        4          7          0         
NO12242201       3.0        0.5        4          7          0         
NO12242304       3.0        0.5        4          7          0         
NO12243001       3.0        0.5        4          7          0         
NO12243201       3.0        0.5        4          7          0         
NO12243305       3.0        0.5        4          7          0         
NO12243401       3.0        0.5        4          7          0         
NO12244001       3.0        0.5        4          7          0         
NO12244005       3.0        0.5        4          7          0         
NO12244202       3.0        0.5        4          7          0         
NO12244403       3.0        0.5        4          7          0         
NO12244502       3.0        0.5        4          7          0         
NO12244601       3.0        0.5        4          7          0         
NO12245201       3.0        0.5        4          7          0         
NO12245602       3.0        0.5        4          7          0         
NO12245701       3.0        0.5        4          7          0         
NO12246201       3.0        0.5        4          7          0         
NO12246202       3.0        0.5        4          7          0         
NO12246303       3.0        0.5        4          7          0         
NO12246404       3.0        0.5        4          7          0         
NO12246501       3.0        0.5        4          7          0         
NO12246503       3.0        0.5        4          7          0         
NO12246602       3.0        0.5        4          7          0         
NO12247303       3.0        0.5        4          7          0         
NO12247402       3.0        0.5        4          7          0         
NO12247501       3.0        0.5        4          7          0         
NO12247704       3.0        0.5        4          7          0         
NO12248502       3.0        0.5        4          7          0         
NO12248505       3.0        0.5        4          7          0         
NO12248702       3.0        0.5        4          7          0         
NO12248703       3.0        0.5        4          7          0         
NO12249704       3.0        0.5        4          7          0         
NO12249803       3.0        0.5        4          7          0         
NO13230603       3.0        0.5        4          7          0         
NO13230701       3.0        0.5        4          7          0         
NO13230803       3.0        0.5        4          7          0         
NO13231601       3.0        0.5        4          7          0         
NO13231602       3.0        0.5        4          7          0         
NO13232701       3.0        0.5        4          7          0         
NO13233503       3.0        0.5        4          7          0         
NO13233601       3.0        0.5        4          7          0         
NO13233804       3.0        0.5        4          7          0         
NO13234601       3.0        0.5        4          7          0         
NO13234803       3.0        0.5        4          7          0         
NO13237501       3.0        0.5        4          7          0         
NO13237601       3.0        0.5        4          7          0         
NO13240602       3.0        0.5        4          7          0         

[JUNCTIONS]
;;Name           Elevation  MaxDepth   InitDepth  SurDepth   Aponded   
;;-------------- ---------- ---------- ---------- ---------- ----------
11239101         6.528871   10.269029  0.000000   0.000000   107639.104167
12223602         72.145669  6.594488   0.000000   0.000000   92852.416672
12223801         13.379265  3.484252   0.000000   0.000000   107639.104167
12223802         22.965879  8.727034   0.000000   0.000000   107639.104167
12223803         27.054535  7.066200   0.000000   0.000000   107639.104167
12223906         11.227034  4.520997   0.000000   0.000000   107639.104167
12223907         8.858268   4.921260   0.000000   0.000000   107639.104167
12223908         7.792796   4.346311   0.000000   0.000000   107639.104167
12223910         6.804000   5.991276   0.000000   0.000000   107639.104167
12223911         6.719000   7.717000   0.000000   0.000000   107639.104167
12223913         -0.721785  15.813648  0.000000   0.000000   107639.104167
12224506         26.246719  10.869423  0.000000   0.000000   107639.104167
12224601         102.919948 2.723097   0.000000   0.000000   107639.104167
12224602         81.660105  6.332021   0.000000   0.000000   91874.095924
12224701         84.940945  4.527559   0.000000   0.000000   107639.104167
12224702         99.229003  4.215879   0.000000   0.000000   107639.104167
12224801         76.706037  4.954068   0.000000   0.000000   300419.778974
12224901         37.102168  7.681297   0.000000   0.000000   107639.104167
12224902         74.737533  5.249344   0.000000   0.000000   107639.104167
12224903         70.259186  9.694882   0.000000   0.000000   107639.104167
12225701         132.178478 4.632546   0.000000   0.000000   194924.480044
12225702         134.153543 3.641732   0.000000   0.000000   232774.482131
12226802         167.959318 4.809711   0.000000   0.000000   242860.081916
12226803         127.093176 5.223097   0.000000   0.000000   107639.104167
12226901         114.872047 4.583333   0.000000   0.000000   202541.239020
12230101         4.297900   13.123360  0.000000   0.000000   107639.104167
12230103         6.496063   10.990814  0.000000   0.000000   107639.104167
12230104         4.195916   13.356577  0.000000   0.000000   107639.104167
12230201         4.529103   13.358036  0.000000   0.000000   107639.104167
12230202         4.363517   13.523622  0.000000   0.000000   134657.433377
12230309         4.658793   13.156168  0.000000   0.000000   107639.104167
12232201         7.572178   4.796588   0.000000   0.000000   107639.104167
12232202         7.788714   8.221785   0.000000   0.000000   107639.104167
12232203         7.923228   6.184383   0.000000   0.000000   107639.104167
12232204         7.923228   6.053150   0.000000   0.000000   107639.104167
12232301         7.923228   4.642388   0.000000   0.000000   107639.104167
12232302         7.942913   3.966535   0.000000   0.000000   107639.104167
12232304         8.497375   4.297900   0.000000   0.000000   107639.104167