[TITLE]
;;Project Title/Notes

[OPTIONS]
;;Option             Value
FLOW_UNITS           CFS
INFILTRATION         CURVE_NUMBER
FLOW_ROUTING         DYNWAVE
LINK_OFFSETS         DEPTH
MIN_SLOPE            0
ALLOW_PONDING        YES
SKIP_STEADY_STATE    NO

IGNORE_SNOWMELT      YES
IGNORE_GROUNDWATER   YES
IGNORE_QUALITY       YES
START_DATE           09/13/2010
START_TIME           00:00:00
REPORT_START_DATE    09/13/2010
REPORT_START_TIME    00:00:00
END_DATE             09/23/2010
END_TIME             06:00:00
SWEEP_START          01/01
SWEEP_END            12/31
DRY_DAYS             5.000000
REPORT_STEP          00:10:00
WET_STEP             00:05:00
DRY_STEP             24:00:00
ROUTING_STEP         0:00:10 

INERTIAL_DAMPING     PARTIAL
NORMAL_FLOW_LIMITED  BOTH
FORCE_MAIN_EQUATION  H-W
VARIABLE_STEP        0.75
LENGTHENING_STEP     5
MIN_SURFAREA         12.570000
MAX_TRIALS           8
HEAD_TOLERANCE       0.001000
SYS_FLOW_TOL         5
LAT_FLOW_TOL         5
MINIMUM_STEP         0
THREADS              1

[FILES]
;;Interfacing Files
USE RUNOFF "F:\2017\kt_runoff.ROF"

[EVAPORATION]
;;Data Source    Parameters
;;-------------- ----------------
CONSTANT         0.000000
DRY_ONLY         NO

[RAINGAGES]
;;Name           Format    Interval SCF      Source    
;;-------------- --------- ------ ------ ----------
10-DAY_SNOWMELT  CUMULATIVE 1.000000 1.000000 TIMESERIES 10DAY_SNOWMELT  
100YR_RAIN       CUMULATIVE 0.100000 1.000000 TIMESERIES SCS_TYPEII_100YR
100_YR           CUMULATIVE 0.100000 1.000000 TIMESERIES SCS_TYPEII_100YR
10DAYSNOW        CUMULATIVE 1.000000 1.000000 TIMESERIES 10DAY_SNOWMELT  
10_YR            CUMULATIVE 0.100000 1.000000 TIMESERIES SCS_TYPEII_10YR 
1979_GRO_SEASON  CUMULATIVE 1.000000 1.000000 TIMESERIES 1979_GROWING_SEASON
24HR_RAIN        CUMULATIVE 0.100000 1.000000 TIMESERIES RAIN2YEAR       
RAIN             CUMULATIVE 0.100000 1.000000 TIMESERIES RAIN2YEAR       
RG1              CUMULATIVE 0.100000 1.000000 TIMESERIES SCS_TYPEII_100YR

[SUBCATCHMENTS]
;;Name           Rain Gage        Outlet           Area     %Imperv  Width    %Slope   CurbLen  SnowPack        
;;-------------- ---------------- ---------------- -------- -------- -------- -------- -------- ----------------
; CSMP-EAST
ACD55BR8_001     100_YR           SA55BR8_001      97.890000 25.000000 500.000000 0.001000 0.000000                 
ACD55MT_007.5    100_YR           CENT_STOR        28.800000 25.000000 500.000000 0.500000 0.000000                 
ACD55MT_008      100_YR           CENT_STOR        67.641000 25.000000 500.000000 0.500000 0.000000                 
; CSMP-EAST
ACD55MT_009      100_YR           EAST_STOR        183.156000 25.000000 500.000000 0.001000 0.000000                 
; CSMP-EAST
ACD55MT_010      100_YR           SA55MT_010       62.930000 25.000000 500.000000 0.009000 0.000000                 
; CSMP-HUGO
ACD55MT_011      100_YR           SA55MT_011       3.786000 25.000000 500.000000 0.029000 0.000000                 
; CSMP-HUGO
ACD55MT_012      100_YR           SA55MT_012       35.618000 25.000000 500.000000 0.008000 0.000000                 
; CSMP-HUGO
ACD55MT_013      100_YR           SA55MT_013       11.098000 25.000000 500.000000 0.014000 0.000000                 
; CSMP-HUGO
ACD55MT_014      100_YR           SA55MT_014       5.399000 25.000000 500.000000 0.027000 0.000000                 
; CSMP-HUGO
ACD55MT_015      100_YR           SA55MT_015       5.531000 25.000000 500.000000 0.012000 0.000000                 
; CSMP-HUGO
ACD55MT_016      100_YR           SA55MT_016       3.326000 25.000000 500.000000 0.017000 0.000000                 
; CSMP-HUGO
ACD55MT_017      100_YR           SA55MT_017       13.926000 25.000000 500.000000 0.005000 0.000000                 
; CSMP-HUGO
ACD55MT_018      100_YR           SA55MT_023       3.327000 25.000000 500.000000 0.006000 0.000000                 
; CSMP-HUGO
ACD55MT_019      100_YR           SA55MT_019       10.416000 25.000000 500.000000 0.006000 0.000000                 
; CSMP-HUGO
ACD55MT_020      100_YR           SA55MT_020       6.666000 25.000000 500.000000 0.014000 0.000000                 
; CSMP-HUGO
ACD55MT_021      100_YR           SA55MT_021       0.940000 25.000000 500.000000 0.006000 0.000000                 
; CSMP-HUGO
ACD55MT_022      100_YR           SA55MT_022       4.717000 25.000000 500.000000 0.002000 0.000000                 
; CSMP-HUGO
ACD55MT_024      100_YR           SA55MT_051       1.905000 25.000000 500.000000 0.001000 0.000000                 
; CSMP-HUGO
ACD55MT_025      100_YR           SA55MT_025       108.941000 25.000000 500.000000 0.006000 0.000000                 
ACD55MT_026      100_YR           CENT_STOR        14.835000 25.000000 500.000000 0.500000 0.000000                 
ACD55MT_027      100_YR           CENT_STOR        68.152000 25.000000 500.000000 0.500000 0.000000                 
; CSMP-EAST
ACD55MT_028      100_YR           SA55MT_028       79.294000 25.000000 500.000000 0.001000 0.000000                 
ACD72_01         100_YR           S_ACD72_01       65.858000 25.000000 500.000000 0.500000 0.000000                 
ACD72_02         100_YR           S_ACD72_02       29.642000 25.000000 500.000000 0.500000 0.000000                 
ACD72_03         100_YR           S_ACD72_03       14.011000 25.000000 500.000000 0.500000 0.000000                 
ACD72_04         100_YR           S_ACD72_04       9.337000 25.000000 500.000000 0.500000 0.000000                 
ACD72_04B        100_YR           S_ACD72_04B      12.063000 25.000000 500.000000 0.500000 0.000000                 
ACD72_05         100_YR           S_ACD72_05       18.806000 25.000000 500.000000 0.500000 0.000000                 
; CSMP-WEST
ACD72_06         100_YR           GW_S_003         58.465000 25.000000 500.000000 0.500000 0.000000                 
ACD72_07         100_YR           CENT_STOR        6.461000 25.000000 500.000000 0.500000 0.000000                 
ACD72_08         100_YR           CENT_STOR        4.943000 25.000000 500.000000 0.500000 0.000000                 
ACD72_09         100_YR           CENT_STOR2       56.870000 25.000000 500.000000 0.500000 0.000000                 
ACD72_10         100_YR           CENT_STOR        29.044000 25.000000 500.000000 0.500000 0.000000                 
ACD72_11         100_YR           CENT_STOR        15.616000 25.000000 500.000000 0.500000 0.000000                 
ACD72_12         100_YR           CENT_STOR        54.612000 25.000000 500.000000 0.500000 0.000000                 
; CSMP-EAST
ACD72_14         100_YR           SA55MT_028       22.762000 25.000000 500.000000 0.500000 0.000000                 
; CSMP-EAST
ACD72_15         100_YR           SA55MT_028       20.515000 25.000000 500.000000 0.500000 0.000000                 
; CSMP-EAST
ACD72_16         100_YR           EAST2            16.123000 25.000000 500.000000 0.500000 0.000000                 
; CSMP-EAST
ACD72_17         100_YR           EAST2            2.514000 25.000000 500.000000 0.500000 0.000000                 
CWC_RC_PELTIER_001 100_YR           CWC_PELTIER_001  9.390000 36.740000 600.821000 0.019000 0.000000                 
CWC_RC_PELTIER_002 100_YR           S_PELTIER_002    81.630000 12.690000 2592.950000 0.005000 0.000000                 
; CSMP-WEST
CWC_RC_PELTIER_002.5 100_YR           GW_S_003         40.973000 25.000000 500.000000 0.005000 0.000000                 
CWC_RC_PELTIER_003 100_YR           S_PELTIER_003    14.456000 39.540000 976.123000 0.012000 0.000000                 
CWC_RC_PELTIER_004 100_YR           S_PELTIER_004    19.176000 39.210000 1125.760000 0.008000 0.000000                 
CWC_RC_PELTIER_005 100_YR           S_PELTIER_005    4.370000 45.890000 552.094000 0.007000 0.000000                 
CWC_RC_PELTIER_006 100_YR           S_PELTIER_006    18.884000 43.370000 1384.980000 0.004000 0.000000                 
CWC_RC_PELTIER_008 100_YR           CENT_STOR        58.298000 25.000000 500.000000 0.500000 0.000000                 
CWC_RC_PELTIER_009 100_YR           CENT_STOR        21.211000 25.000000 500.000000 0.500000 0.000000                 
L_PELTIER_07     100_YR           S_PELTIER_007    49.286000 60.940000 1494.050000 0.004000 0.000000                 
MRC_RC_PELTIER_001 100_YR           PELTIER_LAKE     1274.430000 65.780000 7147.990000 0.001000 0.000000                 
; CSMP-WEST
MRC_RC_PELTIER_001.5 100_YR           WEST_STOR        52.360000 25.000000 500.000000 0.001000 0.000000                 
MRC_RC_PELTIER_002 100_YR           PELTIER_002      126.453000 40.450000 1668.930000 0.000000 0.000000                 
MRC_RC_PELTIER_003 100_YR           PELTIER_003      13.412000 23.540000 1014.470000 0.001000 0.000000                 
MRC_RC_PELTIER_004 100_YR           PELTIER_009      3.183000 34.310000 358.135000 0.004000 0.000000                 
MRC_RC_PELTIER_006 100_YR           PELTIER_006      87.353000 3.150000 2252.460000 0.007000 0.000000                 
MRC_RC_PELTIER_009 100_YR           PELTIER_009      38.800000 42.270000 2222.500000 0.007000 0.000000                 
SMT_002.5        100_YR           CENT_STOR        1.986000 25.000000 500.000000 0.500000 0.000000                 
; CSMP-EAST
SMT_004A         100_YR           SA55MT_028       48.753000 25.000000 500.000000 0.001000 0.000000                 

[SUBAREAS]
;;Subcatchment   N-Imperv   N-Perv     S-Imperv   S-Perv     PctZero    RouteTo    PctRouted 
;;-------------- ---------- ---------- ---------- ---------- ---------- ---------- ----------
ACD55BR8_001     0.100000   0.001000   0.050000   0.050000   25.000000  OUTLET    
ACD55MT_007.5    0.100000   0.001000   0.050000   0.050000   25.000000  OUTLET    
ACD55MT_008      0.100000   0.001000   0.050000   0.050000   25.000000  OUTLET    
ACD55MT_009      0.100000   0.001000   0.050000   0.050000   25.000000  OUTLET    
ACD55MT_010      0.100000   0.001000   0.050000   0.050000   25.000000  OUTLET    
ACD55MT_011      0.100000   0.001000   0.050000   0.050000   25.000000  OUTLET    
ACD55MT_012      0.100000   0.001000   0.050000   0.050000   25.000000  OUTLET    
ACD55MT_013      0.100000   0.001000   0.050000   0.050000   25.000000  OUTLET    
ACD55MT_014      0.100000   0.001000   0.050000   0.050000   25.000000  OUTLET    
ACD55MT_015      0.100000   0.001000   0.050000   0.050000   25.000000  OUTLET    
ACD55MT_016      0.100000   0.001000   0.050000   0.050000   25.000000  OUTLET    
ACD55MT_017      0.100000   0.001000   0.050000   0.050000   25.000000  OUTLET    
ACD55MT_018      0.100000   0.001000   0.050000   0.050000   25.000000  OUTLET    
ACD55MT_019      0.100000   0.001000   0.050000   0.050000   25.000000  OUTLET    
ACD55MT_020      0.100000   0.001000   0.050000   0.050000   25.000000  OUTLET    
ACD55MT_021      0.100000   0.001000   0.050000   0.050000   25.000000  OUTLET    
ACD55MT_022      0.100000   0.001000   0.050000   0.050000   25.000000  OUTLET    
ACD55MT_024      0.100000   0.001000   0.050000   0.050000   25.000000  OUTLET    
ACD55MT_025      0.100000   0.001000   0.050000   0.050000   25.000000  OUTLET    
ACD55MT_026      0.100000   0.001000   0.050000   0.050000   25.000000  OUTLET    
ACD55MT_027      0.100000   0.001000   0.050000   0.050000   25.000000  OUTLET    
ACD55MT_028      0.100000   0.001000   0.050000   0.050000   25.000000  OUTLET    
ACD72_01         0.100000   0.001000   0.050000   0.050000   25.000000  OUTLET    
ACD72_02         0.100000   0.001000   0.050000   0.050000   25.000000  OUTLET    
ACD72_03         0.100000   0.001000   0.050000   0.050000   25.000000  OUTLET    
ACD72_04         0.100000   0.001000   0.050000   0.050000   25.000000  OUTLET    
ACD72_04B        0.100000   0.001000   0.050000   0.050000   25.000000  OUTLET    
ACD72_05         0.100000   0.001000   0.050000   0.050000   25.000000  OUTLET    
ACD72_06         0.100000   0.001000   0.050000   0.050000   25.000000  OUTLET    
ACD72_07         0.100000   0.001000   0.050000   0.050000   25.000000  OUTLET    
ACD72_08         0.100000   0.001000   0.050000   0.050000   25.000000  OUTLET    
ACD72_09         0.100000   0.001000   0.050000   0.050000   25.000000  OUTLET    
ACD72_10         0.100000   0.001000   0.050000   0.050000   25.000000  OUTLET    
ACD72_11         0.100000   0.001000   0.050000   0.050000   25.000000  OUTLET    
ACD72_12         0.100000   0.001000   0.050000   0.050000   25.000000  OUTLET    
ACD72_14         0.100000   0.001000   0.050000   0.050000   25.000000  OUTLET    
ACD72_15         0.100000   0.001000   0.050000   0.050000   25.000000  OUTLET    
ACD72_16         0.100000   0.001000   0.050000   0.050000   25.000000  OUTLET    
ACD72_17         0.100000   0.001000   0.050000   0.050000   25.000000  OUTLET    
CWC_RC_PELTIER_001 0.000000   0.000000   0.080000   0.200000   0.000000   OUTLET    
CWC_RC_PELTIER_002 0.000000   0.000000   0.080000   0.200000   0.000000   OUTLET    
CWC_RC_PELTIER_002.5 0.100000   0.001000   0.050000   0.050000   25.000000  OUTLET    
CWC_RC_PELTIER_003 0.000000   0.000000   0.080000   0.200000   0.000000   OUTLET    
CWC_RC_PELTIER_004 0.000000   0.000000   0.080000   0.200000   0.000000   OUTLET    
CWC_RC_PELTIER_005 0.000000   0.000000   0.080000   0.200000   0.000000   OUTLET    
CWC_RC_PELTIER_006 0.000000   0.000000   0.080000   0.200000   0.000000   OUTLET    
CWC_RC_PELTIER_008 0.100000   0.001000   0.050000   0.050000   25.000000  OUTLET    
CWC_RC_PELTIER_009 0.100000   0.001000   0.050000   0.050000   25.000000  OUTLET    
L_PELTIER_07     0.000000   0.000000   0.080000   0.200000   0.000000   OUTLET    
MRC_RC_PELTIER_001 0.000000   0.000000   0.080000   0.200000   0.000000   OUTLET    
MRC_RC_PELTIER_001.5 0.100000   0.001000   0.050000   0.050000   25.000000  OUTLET    
MRC_RC_PELTIER_002 0.000000   0.000000   0.080000   0.200000   0.000000   OUTLET    
MRC_RC_PELTIER_003 0.000000   0.000000   0.080000   0.200000   0.000000   OUTLET    
MRC_RC_PELTIER_004 0.000000   0.000000   0.080000   0.200000   0.000000   OUTLET    
MRC_RC_PELTIER_006 0.000000   0.000000   0.080000   0.200000   0.000000   OUTLET    
MRC_RC_PELTIER_009 0.000000   0.000000   0.080000   0.200000   0.000000   OUTLET    
SMT_002.5        0.100000   0.001000   0.050000   0.050000   25.000000  OUTLET    
SMT_004A         0.100000   0.001000   0.050000   0.050000   25.000000  OUTLET    

[INFILTRATION]
;;Subcatchment   CurveNum              DryTime   
;;-------------- ---------- ---------- ----------
ACD55BR8_001     88.008000  0.500000   88.008000 
ACD55MT_007.5    84.875000  0.500000   84.875000 
ACD55MT_008      85.238000  0.500000   85.238000 
ACD55MT_009      84.708000  0.500000   84.708000 
ACD55MT_010      88.510000  0.500000   88.510000 
ACD55MT_011      74.407000  0.500000   74.407000 
ACD55MT_012      74.341000  0.500000   74.341000 
ACD55MT_013      73.299000  0.500000   73.299000 
ACD55MT_014      66.468000  0.500000   66.468000 
ACD55MT_015      67.284000  0.500000   67.284000 
ACD55MT_016      66.639000  0.500000   66.639000 
ACD55MT_017      66.916000  0.500000   66.916000 
ACD55MT_018      70.968000  0.500000   70.968000 
ACD55MT_019      67.080000  0.500000   67.080000 
ACD55MT_020      65.879000  0.500000   65.879000 
ACD55MT_021      75.113000  0.500000   75.113000 
ACD55MT_022      65.991000  0.500000   65.991000 
ACD55MT_024      70.954000  0.500000   70.954000 
ACD55MT_025      68.180000  0.500000   68.180000 
ACD55MT_026      85.001000  0.500000   85.001000 
ACD55MT_027      85.497000  0.500000   85.497000 
ACD55MT_028      74.717000  0.500000   74.717000 
ACD72_01         74.860000  0.500000   74.860000 
ACD72_02         74.860000  0.500000   74.860000 
ACD72_03         74.860000  0.500000   74.860000 
ACD72_04         74.860000  0.500000   74.860000 
ACD72_04B        74.860000  0.500000   74.860000 
ACD72_05         78.494000  0.500000   78.494000 
ACD72_06         67.667000  0.500000   67.667000 
ACD72_07         84.993000  0.500000   84.993000 
ACD72_08         84.987000  0.500000   84.987000 
ACD72_09         83.163000  0.500000   83.163000 
ACD72_10         84.923000  0.500000   84.923000 
ACD72_11         83.797000  0.500000   83.797000 
ACD72_12         78.678000  0.500000   78.678000 
ACD72_14         75.489000  0.500000   75.489000 
ACD72_15         74.705000  0.500000   74.705000 
ACD72_16         76.309000  0.500000   76.309000 
ACD72_17         74.141000  0.500000   74.141000 
CWC_RC_PELTIER_001 82.190000  0.500000   82.190000 
CWC_RC_PELTIER_002 67.401000  0.500000   67.401000 
CWC_RC_PELTIER_002.5 78.522000  0.500000   78.522000 
CWC_RC_PELTIER_003 83.470000  0.500000   83.470000 
CWC_RC_PELTIER_004 83.410000  0.500000   83.410000 
CWC_RC_PELTIER_005 85.010000  0.500000   85.010000 
CWC_RC_PELTIER_006 83.990000  0.500000   83.990000 
CWC_RC_PELTIER_008 84.715000  0.500000   84.715000 
CWC_RC_PELTIER_009 85.002000  0.500000   85.002000 
L_PELTIER_07     85.620000  0.500000   85.620000 
MRC_RC_PELTIER_001 75.274000  0.500000   75.274000 
MRC_RC_PELTIER_001.5 72.146000  0.500000   72.146000 
MRC_RC_PELTIER_002 77.910000  0.500000   77.910000 
MRC_RC_PELTIER_003 77.320000  0.500000   77.320000 
MRC_RC_PELTIER_004 82.700000  0.500000   82.700000 
MRC_RC_PELTIER_006 74.070000  0.500000   74.070000 
MRC_RC_PELTIER_009 80.160000  0.500000   80.160000 
SMT_002.5        85.190000  0.500000   85.190000 
SMT_004A         73.991000  0.500000   73.991000 

[SNOWPACKS]
;;Name           Surface    Parameters
;;-------------- ---------- ----------
LINO LAKES SNOWMELT PLOWABLE   0.003200   0.006000   34.000000  0.100000   0.000000   0.000000   0.000000  
LINO LAKES SNOWMELT IMPERVIOUS 0.003200   0.006000   34.000000  0.100000   0.000000   0.000000   2.000000  
LINO LAKES SNOWMELT PERVIOUS   0.002000   0.004000   34.000000  0.100000   0.000000   2.030000   2.000000  
LINO LAKES SNOWMELT REMOVAL    2.000000   0.000000   0.000000   1.000000   0.000000   0.000000   

[JUNCTIONS]
;;Name           Elevation  MaxDepth   InitDepth  SurDepth   Aponded   
;;-------------- ---------- ---------- ---------- ---------- ----------
BR1_01           890.900000 20.000000  0.000000   0.000000   0.000000  
BR1_02           891.700000 20.000000  0.000000   0.000000   0.000000  
BR1_03           894.100000 20.000000  0.000000   0.000000   0.000000  
BR1_03B          893.799000 20.000000  0.000000   0.000000   0.000000  
BR1_04           894.500000 20.000000  0.000000   0.000000   0.000000  
BR1_05           895.245000 20.000000  0.000000   0.000000   0.000000  
CENT_OUT         900.150000 14.000000  0.000000   0.000000   0.000000  
CSMP_OUT         885.500000 7.000000   0.000000   0.000000   0.000000  
; U/S NEW I-35E CULV
EAST_OUT         901.300000 10.000000  0.000000   0.000000   0.000000  
GW_001           885.790000 7.000000   0.000000   0.000000   0.000000  
GW_001.5         894.340000 0.000000   0.000000   0.000000   0.000000  
; D/S power easement
GW_002           895.160000 0.000000   0.000000   0.000000   0.000000  
GW_004           898.970000 0.000000   0.000000   0.000000   0.000000  
JA55MT_001       912.830000 50.000000  0.016000   0.000000   2000.000000
JA55MT_002       913.360000 50.000000  0.015000   0.000000   2000.000000
JA55MT_003       915.300000 50.000000  0.002000   0.000000   2000.000000
JA55MT_004       918.800000 50.000000  1.252000   0.000000   2000.000000
JA55MT_005       916.300000 50.000000  1.470000   0.000000   2000.000000
JA55MT_006       918.300000 50.000000  2.007000   0.000000   2000.000000
JA55MT_007       920.940000 50.000000  1.910000   0.000000   2000.000000
JA55MT_008       924.000000 75.980000  0.015000   0.000000   2000.000000
; OCS
JA55MT_009       926.330000 50.000000  2.402000   0.000000   2000.000000
; OCS
JA55MT_051       918.000000 50.000000  1.896000   0.000000   2000.000000
MT_00            885.123000 20.000000  0.000000   0.000000   0.000000  
MT_01            885.556000 20.000000  0.000000   0.000000   0.000000  
MT_02            887.160000 20.000000  0.000000   0.000000   0.000000  
MT_03            889.560000 20.000000  0.000000   0.000000   0.000000  
MT_04            893.110000 20.000000  0.000000   0.000000   0.000000  
MT_05            895.000000 20.000000  0.000000   0.000000   0.000000  
OVERLAND_03J     899.560000 20.000000  0.000000   0.000000   0.000000  
; Inflows of lake
PELTIER_LAKE     874.000000 124.000000 0.000000   0.000000   0.000000  
SA55MT_025A      910.960000 10.000000  0.000000   0.000000   0.000000  

[OUTFALLS]
;;Name           Elevation  Type       Stage Data       Gated    Route To        
;;-------------- ---------- ---------- ---------------- -------- ----------------
PELTIER          0.000000   FREE                        NO                       

[STORAGE]
;;Name           Elev.    MaxDepth   InitDepth  Shape      Curve Name/Params            N/A      Fevap    Psi      Ksat     IMD     
;;-------------- -------- ---------- ----------- ---------- ---------------------------- -------- --------          -------- --------
; potential storage modeled after watermark development
CENT_STOR        900.150000 10.000000  0.000000   TABULAR    CENT_STOR_P                  0.000000 1.000000
CENT_STOR2       900.500000 5.000000   0.000000   TABULAR    CENT2_STOR_P                 0.000000 1.000000
; Storage curves from LiDAR
CWC_PELTIER_001  889.000000 100.000000 0.000000   TABULAR    CWC_RC_PELTIER_001           0.000000 0.500000
EAST2            908.000000 5.000000   0.000000   TABULAR    EAST2_STOR_P                 0.000000 0.000000
EAST_STOR        901.300000 50.000000  0.000000   TABULAR    EAST_STOR_P                  0.000000 1.000000
; U/S power easement
GW_S_003         895.280000 5.000000   0.000000   FUNCTIONAL 0.000000  0.000000  0.000000 0.000000 0.000000
; Storage curves from LiDAR
PELTIER_002      882.000000 100.000000 0.000000   TABULAR    MRC_RC_PELTIER_002           0.000000 0.500000
; Storage curves from LiDAR
PELTIER_003      884.000000 100.000000 0.000000   TABULAR    MRC_RC_PELTIER_003           0.000000 0.500000
; Storage curves from LiDAR
PELTIER_006      894.000000 100.000000 0.660000   TABULAR    MRC_RC_PELTIER_006           0.000000 0.500000
; Storage curves from LiDAR
PELTIER_009      883.000000 100.000000 0.000000   TABULAR    MRC_RC_PELTIER_009           0.000000 0.500000
SA55BR8_001      903.000000 50.000000  0.900000   TABULAR    ACD55BR8_001_P               0.000000 1.000000
SA55MT_010       907.000000 50.000000  0.900000   TABULAR    ACD55MT_010_P                0.000000 1.000000
SA55MT_011       922.870000 50.000000  0.001000   TABULAR    ACD55_MT_011_P               0.000000 1.000000
SA55MT_012       917.000000 50.000000  2.110000   TABULAR    ACD55_MT_012_P               0.000000 1.000000
; wetland SW of Heritage Ponds
SA55MT_013       922.000000 50.000000  0.004000   TABULAR    ACD55_MT_013_P               0.000000 1.000000
; Pond 4 in Heritage Ponds 1
SA55MT_014       921.000000 50.000000  2.003000   TABULAR    ACD55_MT_014_P               0.000000 1.000000
; Pond 3a in Heritage Ponds 1
SA55MT_015       920.000000 50.000000  2.011000   TABULAR    ACD55_MT_015_P               0.000000 1.000000
; Pond 3 in Heritage Ponds 1
SA55MT_016       916.000000 50.000000  2.012000   TABULAR    ACD55_MT_016_P               0.000000 1.000000
; Wetland C in Heritage Ponds 1
SA55MT_017       924.000000 50.000000  2.008000   TABULAR    ACD55_MT_017_P               0.000000 1.000000
; Pond 7 in Heritage Ponds 1
SA55MT_019       926.000000 50.000000  2.732000   TABULAR    ACD55_MT_019_P               0.000000 1.000000
SA55MT_020       919.000000 50.000000  1.900000   TABULAR    ACD55_MT_020_P               0.000000 1.000000
SA55MT_021       911.000000 50.000000  2.077000   TABULAR    ACD55_MT_021_P               0.000000 1.000000
; Pond 1 in Heritage Ponds 2
SA55MT_022       917.000000 50.000000  1.300000   TABULAR    ACD55_MT_022_P               0.000000 1.000000
; Heritage Ponds 1
SA55MT_023       912.000000 50.000000  2.003000   TABULAR    ACD55_MT_023_P               0.000000 1.000000
SA55MT_025       910.900000 50.000000  0.600000   TABULAR    ACD55_MT_025_P               0.000000 1.000000
SA55MT_028       907.500000 50.000000  0.500000   TABULAR    ACD55MT_028                  0.000000 0.000000
; Pond 14 in VGN
SA55MT_051       918.000000 50.000000  1.894000   TABULAR    ACD55_MT_051_P               0.000000 1.000000
S_ACD72_01       886.000000 10.000000  1.660000   TABULAR    ACD72_01                     0.000000 0.000000
S_ACD72_02       894.000000 10.000000  0.000000   TABULAR    ACD72_02                     0.000000 0.000000
S_ACD72_03       899.000000 10.000000  0.000000   TABULAR    ACD72_03                     0.000000 0.000000
S_ACD72_04       898.000000 10.000000  0.000000   TABULAR    ACD72_04                     0.000000 0.000000
S_ACD72_04B      898.000000 10.000000  0.000000   TABULAR    ACD72_04B                    0.000000 0.000000
; Mattamy Area 3 Pond
S_ACD72_05       896.000000 10.000000  4.000000   TABULAR    ACD72_05                     0.000000 1.000000
; Storage curves from LiDAR
S_PELTIER_002    889.000000 100.000000 0.000000   TABULAR    CWC_RC_PELTIER_002           0.000000 0.500000
; Storage curves from LiDAR
S_PELTIER_003    896.000000 100.000000 0.000000   TABULAR    CWC_RC_PELTIER_003           0.000000 0.500000
; Storage curves from LiDAR
S_PELTIER_004    897.000000 100.000000 0.000000   TABULAR    CWC_RC_PELTIER_004           0.000000 0.500000
; Storage curves from LiDAR
S_PELTIER_005    904.000000 100.000000 0.000000   TABULAR    CWC_RC_PELTIER_005           0.000000 0.500000
; Storage curves from LiDAR
S_PELTIER_006    903.000000 100.000000 0.000000   TABULAR    CWC_RC_PELTIER_006           0.000000 0.500000
; Storage curves from LiDAR
S_PELTIER_007    897.000000 100.000000 0.000000   TABULAR    CWC_RC_PELTIER_007           0.000000 0.500000
WEST_STOR        877.790000 20.000000  8.000000   TABULAR    WEST_STOR                    0.000000 1.000000

[CONDUITS]
;;Name           From Node        To Node          Length     Roughness  InOffset   OutOffset  InitFlow   MaxFlow   
;;-------------- ---------------- ---------------- ---------- ---------- ---------- ---------- ---------- ----------
BR1_01           BR1_01           MT_03            254.321491 0.013000   0.000000   0.000000   0.000000   0.000000  
BR1_02           BR1_02           BR1_01           199.135674 0.013000   0.000000   0.000000   0.000000   0.000000  
BR1_03           BR1_03           BR1_03B          152.920000 0.013000   0.000000   0.000000   0.000000   0.000000  
; Splitted conduit
BR1_03B          BR1_03B          BR1_02           454.550000 0.013000   0.000000   0.000000   0.000000   0.000000  
BR1_04           BR1_04           BR1_03           100.000000 0.013000   0.000000   0.000000   0.000000   0.000000  
BR1_05           BR1_05           BR1_04           370.463561 0.013000   0.000000   0.000000   0.000000   0.000000  
; 15" outlet pipe from OCS
CA55MTL_001      JA55MT_001       SA55MT_025       85.000000  0.012000   0.000000   0.000000   0.000000   0.000000  
; 12" outlet pipe from OCS
CA55MTL_002      JA55MT_051       SA55MT_012       10.000000  0.012000   0.100000   0.000000   0.000000   0.000000  
CA55MTL_003      JA55MT_002       SA55MT_021       10.000000  0.012000   0.000000   2.050000   0.000000   0.000000  
; outlet pipe from OCS
CA55MTL_004      JA55MT_009       SA55MT_017       18.000000  0.012000   2.360000   4.690000   0.000000   0.000000  
CA55MTL_005      JA55MT_003       SA55MT_021       100.000000 0.012000   0.000000   3.500000   0.000000   0.000000  
; outlet of OCS
CA55MTL_006      JA55MT_004       SA55MT_022       64.000000  0.012000   1.250000   1.800000   0.000000   0.000000  
; outlet of OCS
CA55MTL_007      JA55MT_005       SA55MT_023       21.000000  0.012000   1.450000   5.500000   0.000000   0.000000  
; outlet of OCS
CA55MTL_008      JA55MT_006       SA55MT_016       7.000000   0.012000   2.000000   2.100000   0.000000   0.000000  
; outlet from OCS
CA55MTL_009      JA55MT_007       SA55MT_013       16.000000  0.012000   1.900000   0.000000   0.000000   0.000000  
; outlet from wetland
CA55MTL_010      JA55MT_008       SA55MT_015       457.000000 0.012000   0.000000   1.170000   0.000000   0.000000  
; existing culvert under Elmcrest
CA55MTL_011      SA55MT_013       SA55BR8_001      48.000000  0.012000   0.170000   19.000000  0.000000   0.000000  
; existing culvert under Elmcrest
CA55MTL_012      SA55MT_011       SA55MT_010       48.900000  0.024000   0.000000   15.800000  0.000000   0.000000  
; existing culvert under Elmcrest
CA55MTL_013      SA55MT_012       SA55MT_010       42.000000  0.024000   2.110000   11.250000  0.000000   0.000000  
; SOUTHERN PIPE UNDER ELMCREST
CA55MTL_014      SA55MT_025A      SA55MT_025       36.000000  0.010000   0.600000   0.000000   0.000000   0.000000  
; NORTHERN PIPE UNDER ELMCREST
CA55MTL_014B     SA55MT_025       SA55MT_025A      52.000000  0.022000   1.550000   2.000000   0.000000   0.000000  
; Overland flow
CA55MT_021       SA55MT_010       SA55BR8_001      584.735000 0.040000   3.470000   6.300000   0.000000   0.000000  
; overland flow from Hugo
CA55MT_025A      SA55MT_025A      EAST_STOR        3600.000000 0.040000   0.000000   3.700000   0.000000   0.000000  
CDT-29           GW_001.5         WEST_STOR        1698.000000 0.030000   0.000000   8.000000   0.000000   0.000000  
; Overland flow
CDT-31           CENT_STOR2       CENT_STOR        500.000000 0.040000   0.000000   0.000000   0.000000   0.000000  
; Overland flow
CSMP_L_001       SA55BR8_001      EAST_STOR        240.000000 0.040000   3.000000   4.000000   0.000000   0.000000  
; Overland flow
CSMP_L_002       SA55MT_028       EAST2            612.000000 0.040000   0.000000   0.000000   0.000000   0.000000  
; Overland flow