[TITLE]
;;Project Title/Notes
Scenario Run :  BASE
 14x12 box, Existing CSO facility & OF, 25-year 6-hr storm

[OPTIONS]
;;Option             Value
FLOW_UNITS           CFS
INFILTRATION         HORTON
FLOW_ROUTING         DYNWAVE
LINK_OFFSETS         DEPTH
MIN_SLOPE            0
ALLOW_PONDING        NO
SKIP_STEADY_STATE    NO

START_DATE           01/01/1996
START_TIME           00:00:00
REPORT_START_DATE    01/01/1996
REPORT_START_TIME    00:00:00
END_DATE             01/02/1996
END_TIME             00:00:00
SWEEP_START          01/01
SWEEP_END            12/31
DRY_DAYS             0.000000
REPORT_STEP          00:05:00
WET_STEP             00:01:00
DRY_STEP             00:10:00
ROUTING_STEP         0:01:00 

INERTIAL_DAMPING     NONE
NORMAL_FLOW_LIMITED  BOTH
FORCE_MAIN_EQUATION  H-W
VARIABLE_STEP        0.75
LENGTHENING_STEP     5
MIN_SURFAREA         12.557
MAX_TRIALS           4
HEAD_TOLERANCE       0.005000
SYS_FLOW_TOL         5
LAT_FLOW_TOL         5
MINIMUM_STEP         0
THREADS              1

[EVAPORATION]
;;Data Source    Parameters
;;-------------- ----------------
CONSTANT         0.000000
DRY_ONLY         NO

[RAINGAGES]
;;Name           Format    Interval SCF      Source    
;;-------------- --------- ------ ------ ----------
SCS~TYPE~II      CUMULATIVE 0.122500 1.000000 TIMESERIES RN#2            

[SUBCATCHMENTS]
;;Name           Rain Gage        Outlet           Area     %Imperv  Width    %Slope   CurbLen  SnowPack        
;;-------------- ---------------- ---------------- -------- -------- -------- -------- -------- ----------------
A04400#1         SCS~TYPE~II      A04400           6.197000 51.000000 1.000000 100.000000 0.000000                 
AD1900#1         SCS~TYPE~II      AD1900           7.500000 43.100000 1.000000 100.000000 0.000000                 
AD2285#1         SCS~TYPE~II      AD2285           0.600000 43.200000 1.000000 100.000000 0.000000                 
AD2287#1         SCS~TYPE~II      AD2287           5.700000 43.200000 1.000000 100.000000 0.000000                 
AD2300#1         SCS~TYPE~II      AD2300           10.140000 47.100000 1.000000 100.000000 0.000000                 
AD2400#1         SCS~TYPE~II      AD2400           10.700000 51.000000 1.000000 100.000000 0.000000                 
AD2599#1         SCS~TYPE~II      AD2599           11.500000 48.000000 1.000000 100.000000 0.000000                 
AD29002200#1     SCS~TYPE~II      AD29002200       4.200000 43.200000 1.000000 100.000000 0.000000                 
AD4011#1         SCS~TYPE~II      AD4011           1.360000 43.200000 0.100000 100.000000 0.000000                 
AD4011#2         SCS~TYPE~II      AD4011           7.780000 85.000000 0.100000 100.000000 0.000000                 
AD4101#1         SCS~TYPE~II      AD4101           12.240000 43.200000 1.000000 100.000000 0.000000                 
AD4101#2         SCS~TYPE~II      AD4101           70.020000 85.000000 1.000000 100.000000 0.000000                 
AD4121#1         SCS~TYPE~II      AD4121           7.800000 51.000000 1.000000 100.000000 0.000000                 
AD4200#1         SCS~TYPE~II      AD4200           1.360000 45.800000 1.000000 100.000000 0.000000                 
AD4200#2         SCS~TYPE~II      AD4200           7.780000 85.000000 1.000000 100.000000 0.000000                 
AD4212#1         SCS~TYPE~II      AD4212           12.240000 45.800000 1.000000 100.000000 0.000000                 
AD4212#2         SCS~TYPE~II      AD4212           70.020000 85.000000 1.000000 100.000000 0.000000                 
AD4234#1         SCS~TYPE~II      AD4234           9.100000 51.000000 1.000000 100.000000 0.000000                 
AD4300-C#1       SCS~TYPE~II      AD4300-C         0.695000 43.200000 1.000000 100.000000 0.000000                 
AD4400#1         SCS~TYPE~II      AD4400           5.850000 43.200000 1.000000 100.000000 0.000000                 
AD4400-B#1       SCS~TYPE~II      AD4400-B         0.650000 43.200000 1.000000 100.000000 0.000000                 
AD4603#1         SCS~TYPE~II      AD4603           6.700000 49.100000 1.000000 100.000000 0.000000                 
AF1601#1         SCS~TYPE~II      AF1601           10.500000 46.300000 1.000000 100.000000 0.000000                 
AF1801#2         SCS~TYPE~II      AF1801           13.200000 43.200000 1.000000 100.000000 0.000000                 
AO0100#1         SCS~TYPE~II      AO0100           8.622000 44.300000 1.000000 100.000000 0.000000                 
AO2010#1         SCS~TYPE~II      AO2010           4.989000 51.000000 1.000000 100.000000 0.000000                 
AO2100#1         SCS~TYPE~II      AO2100           5.747000 51.000000 1.000000 100.000000 0.000000                 
AO2500#1         SCS~TYPE~II      AO2500           3.851000 51.000000 1.000000 100.000000 0.000000                 
AO2700#1         SCS~TYPE~II      AO2700           3.170000 51.000000 1.000000 100.000000 0.000000                 
AO2800#1         SCS~TYPE~II      AO2800           4.344000 51.000000 1.000000 100.000000 0.000000                 
AO4000#1         SCS~TYPE~II      AO4000           4.078000 51.000000 1.000000 100.000000 0.000000                 
AO4100#1         SCS~TYPE~II      AO4100           8.875000 51.000000 1.000000 100.000000 0.000000                 
AO4200#1         SCS~TYPE~II      AO4200           6.538000 51.000000 1.000000 100.000000 0.000000                 
AO4300#1         SCS~TYPE~II      AO4300           1.860000 51.000000 1.000000 100.000000 0.000000                 
AO4600#1         SCS~TYPE~II      AO4600           8.637000 51.000000 1.000000 100.000000 0.000000                 
AO4700#1         SCS~TYPE~II      AO4700           9.064000 51.000000 1.000000 100.000000 0.000000                 
AO5100#1         SCS~TYPE~II      AO5100           6.010000 51.000000 1.000000 100.000000 0.000000                 
AO5110#1         SCS~TYPE~II      AO5110           4.588000 51.000000 1.000000 100.000000 0.000000                 
AO5200#1         SCS~TYPE~II      AO5200           6.479000 51.000000 1.000000 100.000000 0.000000                 
AO5300#1         SCS~TYPE~II      AO5300           5.559000 51.000000 1.000000 100.000000 0.000000                 
AO6300#1         SCS~TYPE~II      AO6300           7.356000 22.900000 1.000000 100.000000 0.000000                 
AO7000#1         SCS~TYPE~II      AO7000           16.110000 51.000000 1.000000 100.000000 0.000000                 
AO7300#1         SCS~TYPE~II      AO7300           8.469000 22.800000 1.000000 100.000000 0.000000                 
AO7700#1         SCS~TYPE~II      AO7700           4.445000 22.800000 1.000000 100.000000 0.000000                 
AO8000#1         SCS~TYPE~II      AO8000           8.313000 36.500000 1.000000 100.000000 0.000000                 
AO8320#1         SCS~TYPE~II      AO8320           9.400000 22.800000 1.000000 100.000000 0.000000                 
AO8500#1         SCS~TYPE~II      AO8500           10.933000 22.800000 1.000000 100.000000 0.000000                 
AO9000#1         SCS~TYPE~II      AO9000           6.191000 48.200000 1.000000 100.000000 0.000000                 
AP0300#1         SCS~TYPE~II      AP0300           14.716000 51.000000 1.000000 100.000000 0.000000                 
AP1100#1         SCS~TYPE~II      AP1100           7.995000 51.000000 1.000000 100.000000 0.000000                 
AP1400#1         SCS~TYPE~II      AP1400           3.577000 51.000000 1.000000 100.000000 0.000000                 
AP2210#1         SCS~TYPE~II      AP2210           5.817000 24.300000 1.000000 100.000000 0.000000                 
AP2400#1         SCS~TYPE~II      AP2400           8.575000 22.800000 1.000000 100.000000 0.000000                 
AP3210#1         SCS~TYPE~II      AP3210           4.548000 27.500000 1.000000 100.000000 0.000000                 
AP3280#1         SCS~TYPE~II      AP3280           6.933000 41.000000 1.000000 100.000000 0.000000                 
AP3300#1         SCS~TYPE~II      AP3300           4.698000 51.000000 1.000000 100.000000 0.000000                 
AP3410#1         SCS~TYPE~II      AP3410           8.633000 41.400000 1.000000 100.000000 0.000000                 
AP3600#1         SCS~TYPE~II      AP3600           2.490000 51.000000 1.000000 100.000000 0.000000                 
AP3700#1         SCS~TYPE~II      AP3700           7.656000 51.000000 1.000000 100.000000 0.000000                 
AP3900#1         SCS~TYPE~II      AP3900           6.224000 51.000000 1.000000 100.000000 0.000000                 
AP4000#1         SCS~TYPE~II      AP4000           9.166000 32.100000 1.000000 100.000000 0.000000                 
AP4200#1         SCS~TYPE~II      AP4200           15.258000 24.200000 1.000000 100.000000 0.000000                 
AP5021#1         SCS~TYPE~II      AP5021           6.524000 29.200000 1.000000 100.000000 0.000000                 
AP5100#1         SCS~TYPE~II      AP5100           6.006000 22.800000 1.000000 100.000000 0.000000                 
AP5200#1         SCS~TYPE~II      AP5200           7.962000 22.800000 1.000000 100.000000 0.000000                 
AP5210#1         SCS~TYPE~II      AP5210           5.668000 22.800000 1.000000 100.000000 0.000000                 
AP5216#1         SCS~TYPE~II      AP5216           5.668000 22.800000 1.000000 100.000000 0.000000                 
AP5230#1         SCS~TYPE~II      AP5230           6.350000 22.800000 1.000000 100.000000 0.000000                 
AP5400#1         SCS~TYPE~II      AP5400           4.710000 22.800000 1.000000 100.000000 0.000000                 
AP5440#1         SCS~TYPE~II      AP5440           5.211000 39.500000 1.000000 100.000000 0.000000                 
AP5500#1         SCS~TYPE~II      AP5500           4.929000 22.800000 1.000000 100.000000 0.000000                 
AP5520#1         SCS~TYPE~II      AP5520           2.350000 22.800000 1.000000 100.000000 0.000000                 
AP5700#1         SCS~TYPE~II      AP5700           5.791000 22.800000 1.000000 100.000000 0.000000                 
AP5930#1         SCS~TYPE~II      AP5930           3.134000 22.800000 1.000000 100.000000 0.000000                 
AP5960#1         SCS~TYPE~II      AP5960           4.343000 22.800000 1.000000 100.000000 0.000000                 
AP6000#1         SCS~TYPE~II      AP6000           4.431000 22.800000 1.000000 100.000000 0.000000                 
AP6100#1         SCS~TYPE~II      AP6100           8.249000 22.800000 1.000000 100.000000 0.000000                 
AP6500#1         SCS~TYPE~II      AP6500           2.444000 22.800000 1.000000 100.000000 0.000000                 
AP7000#1         SCS~TYPE~II      AP7000           2.350000 22.800000 1.000000 100.000000 0.000000                 
AP7010#1         SCS~TYPE~II      AP7010           4.854000 22.800000 1.000000 100.000000 0.000000                 
AP7030#1         SCS~TYPE~II      AP7030           9.479000 22.800000 1.000000 100.000000 0.000000                 
AP7100#1         SCS~TYPE~II      AP7100           3.948000 41.700000 1.000000 100.000000 0.000000                 
AP7120#1         SCS~TYPE~II      AP7120           7.237000 22.800000 1.000000 100.000000 0.000000                 
AP7145#1         SCS~TYPE~II      AP7145           2.386000 22.800000 1.000000 100.000000 0.000000                 
AP7160#1         SCS~TYPE~II      AP7160           3.424000 22.800000 1.000000 100.000000 0.000000                 
AP7410#1         SCS~TYPE~II      AP7410           6.494000 41.500000 1.000000 100.000000 0.000000                 
AP7600#1         SCS~TYPE~II      AP7600           3.731000 40.100000 1.000000 100.000000 0.000000                 
AP7700#1         SCS~TYPE~II      AP7700           4.810000 22.800000 1.000000 100.000000 0.000000                 
AP7840#1         SCS~TYPE~II      AP7840           7.037000 22.800000 1.000000 100.000000 0.000000                 
AP7910#1         SCS~TYPE~II      AP7910           6.320000 29.500000 1.000000 100.000000 0.000000                 
AP8010#1         SCS~TYPE~II      AP8010           5.670000 22.800000 1.000000 100.000000 0.000000                 
AP8050#1         SCS~TYPE~II      AP8050           4.790000 22.800000 1.000000 100.000000 0.000000                 
AP8060#1         SCS~TYPE~II      AP8060           2.886000 22.800000 1.000000 100.000000 0.000000                 
AP8100#1         SCS~TYPE~II      AP8100           6.050000 40.500000 1.000000 100.000000 0.000000                 
AP8110#1         SCS~TYPE~II      AP8110           4.169000 22.800000 1.000000 100.000000 0.000000                 
AP8310#1         SCS~TYPE~II      AP8310           4.107000 22.800000 1.000000 100.000000 0.000000                 
AP9400#1         SCS~TYPE~II      AP9400           3.242000 22.800000 1.000000 100.000000 0.000000                 
AP9500#1         SCS~TYPE~II      AP9500           3.709000 22.800000 1.000000 100.000000 0.000000                 
AP9620#1         SCS~TYPE~II      AP9620           3.162000 22.800000 1.000000 100.000000 0.000000                 
AP9630#1         SCS~TYPE~II      AP9630           3.428000 22.800000 1.000000 100.000000 0.000000                 
AP9700#1         SCS~TYPE~II      AP9700           2.741000 22.800000 1.000000 100.000000 0.000000                 
AP9810#1         SCS~TYPE~II      AP9810           2.073000 22.800000 1.000000 100.000000 0.000000                 
AR4000#1         SCS~TYPE~II      AR4000           4.656000 25.700000 1.000000 100.000000 0.000000                 
CK/1~INTER#1     SCS~TYPE~II      CK/1~INTER       442.000000 46.400000 1.000000 100.000000 0.000000                 
LD3100#1         SCS~TYPE~II      LD3100           0.001000 0.000000 0.000000 0.000000 0.000000                 
LD3200#1         SCS~TYPE~II      LD3200           0.001000 0.000000 0.000000 0.000000 0.000000                 
N10-10#1         SCS~TYPE~II      N10-10           45.000000 51.000000 1.000000 100.000000 0.000000                 
N10-10#2         SCS~TYPE~II      N10-10           23.000000 51.000000 1.000000 100.000000 0.000000                 
N11A-WY#1        SCS~TYPE~II      N11A-WY          1820.000000 40.700000 1.000000 100.000000 0.000000                 
N12-10#1         SCS~TYPE~II      N12-10           10.400000 51.000000 1.000000 100.000000 0.000000                 
N12-10#2         SCS~TYPE~II      N12-10           6.000000 51.000000 1.000000 100.000000 0.000000                 
N12-10/1#1       SCS~TYPE~II      N12-10/1         2.500000 51.000000 1.000000 100.000000 0.000000                 
N12-10/1#2       SCS~TYPE~II      N12-10/1         2.000000 51.000000 1.000000 100.000000 0.000000                 
N13-5#1          SCS~TYPE~II      N13-5            3.400000 49.000000 1.000000 100.000000 0.000000                 
N13-5A#1         SCS~TYPE~II      N13-5A           3.400000 49.000000 1.000000 100.000000 0.000000                 
N14-5#1          SCS~TYPE~II      N14-5            6.900000 51.000000 1.000000 100.000000 0.000000                 
N15-10#1         SCS~TYPE~II      N15-10           14.449000 51.000000 1.000000 100.000000 0.000000                 
N15-10/1#1       SCS~TYPE~II      N15-10/1         10.000000 51.000000 1.000000 100.000000 0.000000                 
N15-10/1#2       SCS~TYPE~II      N15-10/1         3.000000 51.000000 1.000000 100.000000 0.000000                 
N5-10#1          SCS~TYPE~II      N5-10            7.700000 43.200000 1.000000 100.000000 0.000000                 
N5-5B#1          SCS~TYPE~II      N5-5B            11.300000 39.000000 1.000000 100.000000 0.000000                 
N5-6#1           SCS~TYPE~II      N5-6             14.500000 45.000000 1.000000 100.000000 0.000000                 
N5-8#1           SCS~TYPE~II      N5-8             11.000000 51.000000 1.000000 100.000000 0.000000                 
N6-10#1          SCS~TYPE~II      N6-10            10.400000 43.200000 1.000000 100.000000 0.000000                 
N6-10#2          SCS~TYPE~II      N6-10            13.500000 45.000000 1.000000 100.000000 0.000000                 
N6-7#1           SCS~TYPE~II      N6-7             7.000000 43.100000 1.000000 100.000000 0.000000                 
N6-9#1           SCS~TYPE~II      N6-9             18.400000 43.200000 1.000000 100.000000 0.000000                 
N7-7#1           SCS~TYPE~II      N7-7             2.600000 51.000000 1.000000 100.000000 0.000000                 
N8-10/3#1        SCS~TYPE~II      N8-10/3          117.200000 51.000000 1.000000 100.000000 0.000000                 
PT100#1          SCS~TYPE~II      PT100            378.000000 38.300000 1.000000 100.000000 0.000000                 
PT90#1           SCS~TYPE~II      PT90             691.000000 39.400000 1.000000 100.000000 0.000000                 
PT90#2           SCS~TYPE~II      PT90             232.000000 35.800000 1.000000 100.000000 0.000000                 
PT90#3           SCS~TYPE~II      PT90             390.000000 55.400000 1.000000 100.000000 0.000000                 

[SUBAREAS]
;;Subcatchment   N-Imperv   N-Perv     S-Imperv   S-Perv     PctZero    RouteTo    PctRouted 
;;-------------- ---------- ---------- ---------- ---------- ---------- ---------- ----------
A04400#1         0.010000   0.100000   0.050000   0.050000   25.000000  OUTLET    
AD1900#1         0.010000   0.100000   0.050000   0.050000   25.000000  OUTLET    
AD2285#1         0.010000   0.100000   0.050000   0.050000   25.000000  OUTLET    
AD2287#1         0.010000   0.100000   0.050000   0.050000   25.000000  OUTLET    
AD2300#1         0.010000   0.100000   0.050000   0.050000   25.000000  OUTLET    
AD2400#1         0.010000   0.100000   0.050000   0.050000   25.000000  OUTLET    
AD2599#1         0.010000   0.100000   0.050000   0.050000   25.000000  OUTLET    
AD29002200#1     0.010000   0.100000   0.050000   0.050000   25.000000  OUTLET    
AD4011#1         0.010000   0.100000   0.050000   0.050000   25.000000  OUTLET    
AD4011#2         0.010000   0.100000   0.050000   0.050000   25.000000  OUTLET    
AD4101#1         0.010000   0.100000   0.050000   0.050000   25.000000  OUTLET    
AD4101#2         0.010000   0.100000   0.050000   0.050000   25.000000  OUTLET    
AD4121#1         0.010000   0.100000   0.050000   0.050000   25.000000  OUTLET    
AD4200#1         0.010000   0.100000   0.050000   0.050000   25.000000  OUTLET    
AD4200#2         0.010000   0.100000   0.050000   0.050000   25.000000  OUTLET    
AD4212#1         0.010000   0.100000   0.050000   0.050000   25.000000  OUTLET    
AD4212#2         0.010000   0.100000   0.050000   0.050000   25.000000  OUTLET    
AD4234#1         0.010000   0.100000   0.050000   0.050000   25.000000  OUTLET    
AD4300-C#1       0.010000   0.100000   0.050000   0.050000   25.000000  OUTLET    
AD4400#1         0.010000   0.100000   0.050000   0.050000   25.000000  OUTLET    
AD4400-B#1       0.010000   0.100000   0.050000   0.050000   25.000000  OUTLET    
AD4603#1         0.010000   0.100000   0.050000   0.050000   25.000000  OUTLET    
AF1601#1         0.010000   0.100000   0.050000   0.050000   25.000000  OUTLET    
AF1801#2         0.010000   0.100000   0.050000   0.050000   25.000000  OUTLET    
AO0100#1         0.010000   0.100000   0.050000   0.050000   25.000000  OUTLET    
AO2010#1         0.010000   0.100000   0.050000   0.050000   25.000000  OUTLET    
AO2100#1         0.010000   0.100000   0.050000   0.050000   25.000000  OUTLET    
AO2500#1         0.010000   0.100000   0.050000   0.050000   25.000000  OUTLET    
AO2700#1         0.010000   0.100000   0.050000   0.050000   25.000000  OUTLET    
AO2800#1         0.010000   0.100000   0.050000   0.050000   25.000000  OUTLET    
AO4000#1         0.010000   0.100000   0.050000   0.050000   25.000000  OUTLET    
AO4100#1         0.010000   0.100000   0.050000   0.050000   25.000000  OUTLET    
AO4200#1         0.010000   0.100000   0.050000   0.050000   25.000000  OUTLET    
AO4300#1         0.010000   0.100000   0.050000   0.050000   25.000000  OUTLET    
AO4600#1         0.010000   0.100000   0.050000   0.050000   25.000000  OUTLET    
AO4700#1         0.010000   0.100000   0.050000   0.050000   25.000000  OUTLET    
AO5100#1         0.010000   0.100000   0.050000   0.050000   25.000000  OUTLET    
AO5110#1         0.010000   0.100000   0.050000   0.050000   25.000000  OUTLET    
AO5200#1         0.010000   0.100000   0.050000   0.050000   25.000000  OUTLET    
AO5300#1         0.010000   0.100000   0.050000   0.050000   25.000000  OUTLET    
AO6300#1         0.010000   0.100000   0.050000   0.050000   25.000000  OUTLET    
AO7000#1         0.010000   0.100000   0.050000   0.050000   25.000000  OUTLET    
AO7300#1         0.010000   0.100000   0.050000   0.050000   25.000000  OUTLET    
AO7700#1         0.010000   0.100000   0.050000   0.050000   25.000000  OUTLET    
AO8000#1         0.010000   0.100000   0.050000   0.050000   25.000000  OUTLET    
AO8320#1         0.010000   0.100000   0.050000   0.050000   25.000000  OUTLET    
AO8500#1         0.010000   0.100000   0.050000   0.050000   25.000000  OUTLET    
AO9000#1         0.010000   0.100000   0.050000   0.050000   25.000000  OUTLET    
AP0300#1         0.010000   0.100000   0.050000   0.050000   25.000000  OUTLET    
AP1100#1         0.010000   0.100000   0.050000   0.050000   25.000000  OUTLET    
AP1400#1         0.010000   0.100000   0.050000   0.050000   25.000000  OUTLET    
AP2210#1         0.010000   0.100000   0.050000   0.050000   25.000000  OUTLET    
AP2400#1         0.010000   0.100000   0.050000   0.050000   25.000000  OUTLET    
AP3210#1         0.010000   0.100000   0.050000   0.050000   25.000000  OUTLET    
AP3280#1         0.010000   0.100000   0.050000   0.050000   25.000000  OUTLET    
AP3300#1         0.010000   0.100000   0.050000   0.050000   25.000000  OUTLET    
AP3410#1         0.010000   0.100000   0.050000   0.050000   25.000000  OUTLET    
AP3600#1         0.010000   0.100000   0.050000   0.050000   25.000000  OUTLET    
AP3700#1         0.010000   0.100000   0.050000   0.050000   25.000000  OUTLET    
AP3900#1         0.010000   0.100000   0.050000   0.050000   25.000000  OUTLET    
AP4000#1         0.010000   0.100000   0.050000   0.050000   25.000000  OUTLET    
AP4200#1         0.010000   0.100000   0.050000   0.050000   25.000000  OUTLET    
AP5021#1         0.010000   0.100000   0.050000   0.050000   25.000000  OUTLET    
AP5100#1         0.010000   0.100000   0.050000   0.050000   25.000000  OUTLET    
AP5200#1         0.010000   0.100000   0.050000   0.050000   25.000000  OUTLET    
AP5210#1         0.010000   0.100000   0.050000   0.050000   25.000000  OUTLET    
AP5216#1         0.010000   0.100000   0.050000   0.050000   25.000000  OUTLET    
AP5230#1         0.010000   0.100000   0.050000   0.050000   25.000000  OUTLET    
AP5400#1         0.010000   0.100000   0.050000   0.050000   25.000000  OUTLET    
AP5440#1         0.010000   0.100000   0.050000   0.050000   25.000000  OUTLET    
AP5500#1         0.010000   0.100000   0.050000   0.050000   25.000000  OUTLET    
AP5520#1         0.010000   0.100000   0.050000   0.050000   25.000000  OUTLET    
AP5700#1         0.010000   0.100000   0.050000   0.050000   25.000000  OUTLET    
AP5930#1         0.010000   0.100000   0.050000   0.050000   25.000000  OUTLET    
AP5960#1         0.010000   0.100000   0.050000   0.050000   25.000000  OUTLET    
AP6000#1         0.010000   0.100000   0.050000   0.050000   25.000000  OUTLET    
AP6100#1         0.010000   0.100000   0.050000   0.050000   25.000000  OUTLET    
AP6500#1         0.010000   0.100000   0.050000   0.050000   25.000000  OUTLET    
AP7000#1         0.010000   0.100000   0.050000   0.050000   25.000000  OUTLET    
AP7010#1         0.010000   0.100000   0.050000   0.050000   25.000000  OUTLET    
AP7030#1         0.010000   0.100000   0.050000   0.050000   25.000000  OUTLET    
AP7100#1         0.010000   0.100000   0.050000   0.050000   25.000000  OUTLET    
AP7120#1         0.010000   0.100000   0.050000   0.050000   25.000000  OUTLET    
AP7145#1         0.010000   0.100000   0.050000   0.050000   25.000000  OUTLET    
AP7160#1         0.010000   0.100000   0.050000   0.050000   25.000000  OUTLET    
AP7410#1         0.010000   0.100000   0.050000   0.050000   25.000000  OUTLET    
AP7600#1         0.010000   0.100000   0.050000   0.050000   25.000000  OUTLET    
AP7700#1         0.010000   0.100000   0.050000   0.050000   25.000000  OUTLET    
AP7840#1         0.010000   0.100000   0.050000   0.050000   25.000000  OUTLET    
AP7910#1         0.010000   0.100000   0.050000   0.050000   25.000000  OUTLET    
AP8010#1         0.010000   0.100000   0.050000   0.050000   25.000000  OUTLET    
AP8050#1         0.010000   0.100000   0.050000   0.050000   25.000000  OUTLET    
AP8060#1         0.010000   0.100000   0.050000   0.050000   25.000000  OUTLET    
AP8100#1         0.010000   0.100000   0.050000   0.050000   25.000000  OUTLET    
AP8110#1         0.010000   0.100000   0.050000   0.050000   25.000000  OUTLET    
AP8310#1         0.010000   0.100000   0.050000   0.050000   25.000000  OUTLET    
AP9400#1         0.010000   0.100000   0.050000   0.050000   25.000000  OUTLET    
AP9500#1         0.010000   0.100000   0.050000   0.050000   25.000000  OUTLET    
AP9620#1         0.010000   0.100000   0.050000   0.050000   25.000000  OUTLET    
AP9630#1         0.010000   0.100000   0.050000   0.050000   25.000000  OUTLET    
AP9700#1         0.010000   0.100000   0.050000   0.050000   25.000000  OUTLET    
AP9810#1         0.010000   0.100000   0.050000   0.050000   25.000000  OUTLET    
AR4000#1         0.010000   0.100000   0.050000   0.050000   25.000000  OUTLET    
CK/1~INTER#1     0.010000   0.100000   0.050000   0.050000   25.000000  OUTLET    
LD3100#1         0.010000   0.100000   0.050000   0.050000   25.000000  OUTLET    
LD3200#1         0.010000   0.100000   0.050000   0.050000   25.000000  OUTLET    
N10-10#1         0.010000   0.100000   0.050000   0.050000   25.000000  OUTLET    
N10-10#2         0.010000   0.100000   0.050000   0.050000   25.000000  OUTLET    
N11A-WY#1        0.010000   0.100000   0.050000   0.050000   25.000000  OUTLET    
N12-10#1         0.010000   0.100000   0.050000   0.050000   25.000000  OUTLET    
N12-10#2         0.010000   0.100000   0.050000   0.050000   25.000000  OUTLET    
N12-10/1#1       0.010000   0.100000   0.050000   0.050000   25.000000  OUTLET    
N12-10/1#2       0.010000   0.100000   0.050000   0.050000   25.000000  OUTLET    
N13-5#1          0.010000   0.100000   0.050000   0.050000   25.000000  OUTLET    
N13-5A#1         0.010000   0.100000   0.050000   0.050000   25.000000  OUTLET    
N14-5#1          0.010000   0.100000   0.050000   0.050000   25.000000  OUTLET    
N15-10#1         0.010000   0.100000   0.050000   0.050000   25.000000  OUTLET    
N15-10/1#1       0.010000   0.100000   0.050000   0.050000   25.000000  OUTLET    
N15-10/1#2       0.010000   0.100000   0.050000   0.050000   25.000000  OUTLET    
N5-10#1          0.010000   0.100000   0.050000   0.050000   25.000000  OUTLET    
N5-5B#1          0.010000   0.100000   0.050000   0.050000   25.000000  OUTLET    
N5-6#1           0.010000   0.100000   0.050000   0.050000   25.000000  OUTLET    
N5-8#1           0.010000   0.100000   0.050000   0.050000   25.000000  OUTLET    
N6-10#1          0.010000   0.100000   0.050000   0.050000   25.000000  OUTLET    
N6-10#2          0.010000   0.100000   0.050000   0.050000   25.000000  OUTLET    
N6-7#1           0.010000   0.100000   0.050000   0.050000   25.000000  OUTLET    
N6-9#1           0.010000   0.100000   0.050000   0.050000   25.000000  OUTLET    
N7-7#1           0.010000   0.100000   0.050000   0.050000   25.000000  OUTLET    
N8-10/3#1        0.010000   0.100000   0.050000   0.050000   25.000000  OUTLET    
PT100#1          0.010000   0.100000   0.050000   0.050000   25.000000  OUTLET    
PT90#1           0.010000   0.100000   0.050000   0.050000   25.000000  OUTLET    
PT90#2           0.010000   0.100000   0.050000   0.050000   25.000000  OUTLET    
PT90#3           0.010000   0.100000   0.050000   0.050000   25.000000  OUTLET    

[INFILTRATION]
;;Subcatchment   MaxRate    MinRate    Decay      DryTime    MaxInfil  
;;-------------- ---------- ---------- ---------- ---------- ----------
A04400#1         3.000000   0.500000   4.000000   7.000000   0.000000  
AD1900#1         3.000000   0.500000   4.000000   7.000000   0.000000  
AD2285#1         3.000000   0.500000   4.000000   7.000000   0.000000  
AD2287#1         3.000000   0.500000   4.000000   7.000000   0.000000  
AD2300#1         3.000000   0.500000   4.000000   7.000000   0.000000  
AD2400#1         3.000000   0.500000   4.000000   7.000000   0.000000  
AD2599#1         3.000000   0.500000   4.000000   7.000000   0.000000  
AD29002200#1     3.000000   0.500000   4.000000   7.000000   0.000000  
AD4011#1         3.000000   0.500000   4.000000   7.000000   0.000000  
AD4011#2         3.000000   0.500000   4.000000   7.000000   0.000000  
AD4101#1         3.000000   0.500000   4.000000   7.000000   0.000000  
AD4101#2         3.000000   0.500000   4.000000   7.000000   0.000000  
AD4121#1         3.000000   0.500000   4.000000   7.000000   0.000000  
AD4200#1         3.000000   0.500000   4.000000   7.000000   0.000000  
AD4200#2         3.000000   0.500000   4.000000   7.000000   0.000000  
AD4212#1         3.000000   0.500000   4.000000   7.000000   0.000000  
AD4212#2         3.000000   0.500000   4.000000   7.000000   0.000000  
AD4234#1         3.000000   0.500000   4.000000   7.000000   0.000000  
AD4300-C#1       3.000000   0.500000   4.000000   7.000000   0.000000  
AD4400#1         3.000000   0.500000   4.000000   7.000000   0.000000  
AD4400-B#1       3.000000   0.500000   4.000000   7.000000   0.000000  