[TITLE]
Scenario Run :  2050MODEL

[OPTIONS]
;Option and Files Scenario Set: 10YR-24HOUR
FLOW_UNITS	CFS
INFILTRATION	HORTON
FLOW_ROUTING	DYNWAVE
ALLOW_PONDING	NO
DRY_DAYS	5.000000
SKIP_STEADY_STATE 	NO
IGNORE_RAINFALL	NO
IGNORE_SNOWMELT	NO
IGNORE_GROUNDWATER	NO
IGNORE_QUALITY	NO
FORCE_MAIN_EQUATION	H-W
LINK_OFFSETS	DEPTH
MIN_SLOPE	0.000000
START_DATE	01/01/2012
START_TIME	00:00
END_DATE	01/02/2012
END_TIME	00:00
REPORT_START_DATE	01/01/2012
REPORT_START_TIME	00:00
SWEEP_START	01/01
SWEEP_END	12/31
WET_STEP	00:01:00
DRY_STEP	24:00:00
ROUTING_STEP	10
REPORT_STEP	00:05:00
INERTIAL_DAMPING	PARTIAL
VARIABLE_STEP	1.000000
MINIMUM_STEP	0.5
LENGTHENING_STEP	10
MIN_SURFAREA	0.000000
NORMAL_FLOW_LIMITED	SLOPE
MAX_TRIALS	4
HEAD_TOLERANCE	0.005000

[FILES]
USE HOTSTART	"C:\Users\tkampa\Documents\Sewer Modeling Files\H2OMapSWMM\Current Models\1B- MCES Upgrades\diurnalWet.HSF"

[RAINGAGES]
RG1	VOLUME	0.250000	1.000000	TIMESERIES	TS1		

[HYDROGRAPHS]
; 
RDII_HYD	RG1
RDII_HYD	ALL	Short	0.500000	4.000000	1.500000	0.000000	0.000000	0.000000
RDII_HYD	ALL	Medium	0.500000	6.000000	1.800000	0.000000	0.000000	0.000000
RDII_HYD	ALL	Long	0.000000	6.000000	0.000000	0.000000	0.000000	0.000000

[TEMPERATURE]

[ADJUSTMENTS]

[SUBCATCHMENTS]
; Option and Files Scenario Set: DWF
SUB-01-03-Y0	RG1	01-03-Y0	0.004077	20.000000	100.000000	0.010000	0.000000
SUB-01-03-Z0	RG1	01-03-Z0	0.004077	20.000000	100.000000	0.010000	0.000000
SUB-01-05-V0	RG1	01-05-V0	0.004077	20.000000	100.000000	0.010000	0.000000
SUB-01-07-C0	RG1	01-07-C0	0.004077	20.000000	100.000000	0.010000	0.000000
SUB-01-07-V0	RG1	01-07-V0	0.004077	20.000000	100.000000	0.010000	0.000000
SUB-01-09-B0	RG1	01-09-B0	0.004077	20.000000	100.000000	0.010000	0.000000
SUB-01-09-T0	RG1	01-09-T0	0.004077	20.000000	100.000000	0.010000	0.000000
SUB-01-09-V0	RG1	01-09-V0	0.004077	20.000000	100.000000	0.010000	0.000000
SUB-01-11-B0	RG1	01-11-B0	0.004077	20.000000	100.000000	0.010000	0.000000
SUB-01-14-B0	RG1	01-14-B0	0.004077	20.000000	100.000000	0.010000	0.000000
SUB-01-16-B0	RG1	01-16-B0	0.004077	20.000000	100.000000	0.010000	0.000000
SUB-01-17-B0	RG1	01-17-B0	0.004077	20.000000	100.000000	0.010000	0.000000
SUB-01-21-C0	RG1	01-21-C0	0.004077	20.000000	100.000000	0.010000	0.000000
SUB-01-21-GX	RG1	01-21-GX	0.004077	20.000000	100.000000	0.010000	0.000000
SUB-01-22-D0	RG1	01-22-D0	0.004077	20.000000	100.000000	0.010000	0.000000
SUB-01-22-G0	RG1	01-22-G0	0.004077	20.000000	100.000000	0.010000	0.000000
SUB-01-25-F0	RG1	01-25-F0	0.004077	20.000000	100.000000	0.010000	0.000000
SUB-01-25-G0	RG1	01-25-G0	0.004077	20.000000	100.000000	0.010000	0.000000
SUB-01-25-K0	RG1	01-25-K0	0.004077	20.000000	100.000000	0.010000	0.000000
SUB-01-26-F0	RG1	01-26-F0	0.004077	20.000000	100.000000	0.010000	0.000000
SUB-01-26-I0	RG1	01-26-I0	0.004077	20.000000	100.000000	0.010000	0.000000
SUB-01-26-L0	RG1	01-26-L0	0.004077	20.000000	100.000000	0.010000	0.000000
SUB-01-26-M0	RG1	01-26-M0	0.004077	20.000000	100.000000	0.010000	0.000000
SUB-01-26-Q0	RG1	01-26-Q0	0.004077	20.000000	100.000000	0.010000	0.000000
SUB-01-26-V0	RG1	01-26-V0	0.004077	20.000000	100.000000	0.010000	0.000000
SUB-01-27-Y0	RG1	01-27-Y0	0.004077	20.000000	100.000000	0.010000	0.000000
SUB-01-31-M0	RG1	01-31-M0	0.004077	20.000000	100.000000	0.010000	0.000000
SUB-01-31-U0	RG1	01-31-U0	0.004077	20.000000	100.000000	0.010000	0.000000
SUB-01-31-V0	RG1	01-31-V0	0.004077	20.000000	100.000000	0.010000	0.000000
SUB-01-31-W0	RG1	01-31-W0	0.004077	20.000000	100.000000	0.010000	0.000000
SUB-01-31-Y0	RG1	01-31-Y0	0.004077	20.000000	100.000000	0.010000	0.000000
SUB-01-35-M0	RG1	01-35-M0	0.004077	20.000000	100.000000	0.010000	0.000000
SUB-01-35-U0	RG1	01-35-U0	0.004077	20.000000	100.000000	0.010000	0.000000
SUB-01-39-M0	RG1	01-39-M0	0.004077	20.000000	100.000000	0.010000	0.000000
SUB-01-39-Q0	RG1	01-39-Q0	0.004077	20.000000	100.000000	0.010000	0.000000
SUB-01-39-U0	RG1	01-39-U0	0.004077	20.000000	100.000000	0.010000	0.000000
SUB-01-39-V0	RG1	01-39-V0	0.004077	20.000000	100.000000	0.010000	0.000000
SUB-01-39-Y0	RG1	01-39-Y0	0.004077	20.000000	100.000000	0.010000	0.000000
SUB-01-40-A0	RG1	01-40-A0	0.004077	20.000000	100.000000	0.010000	0.000000
SUB-01-40-M0	RG1	01-40-M0	0.004077	20.000000	100.000000	0.010000	0.000000
SUB-01-43-G0	RG1	01-43-G0	0.004077	20.000000	100.000000	0.010000	0.000000
SUB-01-43-J0	RG1	01-43-J0	0.004077	20.000000	100.000000	0.010000	0.000000
SUB-01-43-M0	RG1	01-43-M0	0.004077	20.000000	100.000000	0.010000	0.000000
SUB-01-44-A0	RG1	01-44-A0	0.004077	20.000000	100.000000	0.010000	0.000000
SUB-01-45-M0	RG1	01-45-M0	0.004077	20.000000	100.000000	0.010000	0.000000
SUB-01-47-A0	RG1	01-47-A0	0.004077	20.000000	100.000000	0.010000	0.000000
SUB-01-47-G0	RG1	01-47-G0	0.004077	20.000000	100.000000	0.010000	0.000000
SUB-01-48-A0	RG1	01-48-A0	0.004077	20.000000	100.000000	0.010000	0.000000
SUB-01-49-A0	RG1	01-49-A0	0.004077	20.000000	100.000000	0.010000	0.000000
SUB-01-49-M0	RG1	01-49-M0	0.004077	20.000000	100.000000	0.010000	0.000000
SUB-01-50-M0	RG1	01-50-M0	0.004077	20.000000	100.000000	0.010000	0.000000
SUB-01-51-A0	RG1	01-51-A0	0.004077	20.000000	100.000000	0.010000	0.000000
SUB-01-51-G0	RG1	01-51-G0	0.004077	20.000000	100.000000	0.010000	0.000000
SUB-02-01-A0	RG1	02-01-A0	0.004077	20.000000	100.000000	0.010000	0.000000
SUB-02-01-C0	RG1	02-01-C0	0.004077	20.000000	100.000000	0.010000	0.000000
SUB-02-01-F0	RG1	02-01-F0	0.004077	20.000000	100.000000	0.010000	0.000000
SUB-02-01-I0	RG1	02-01-I0	0.004077	20.000000	100.000000	0.010000	0.000000
SUB-02-01-K0	RG1	02-01-K0	0.004077	20.000000	100.000000	0.010000	0.000000
SUB-02-01-L0	RG1	02-01-L0	0.004077	20.000000	100.000000	0.010000	0.000000
SUB-02-01-N0	RG1	02-01-N0	0.004077	20.000000	100.000000	0.010000	0.000000
SUB-02-01-Q0	RG1	02-01-Q0	0.004077	20.000000	100.000000	0.010000	0.000000
SUB-02-01-R0	RG1	02-01-R0	0.004077	20.000000	100.000000	0.010000	0.000000
SUB-02-01-S0	RG1	02-01-S0	0.004077	20.000000	100.000000	0.010000	0.000000
SUB-02-01-T0	RG1	02-01-T0	0.004077	20.000000	100.000000	0.010000	0.000000
SUB-02-03-LX	RG1	02-03-LX	0.004077	20.000000	100.000000	0.010000	0.000000
SUB-02-03-O0	RG1	02-03-O0	0.004077	20.000000	100.000000	0.010000	0.000000
SUB-02-03-R0	RG1	02-03-R0	0.004077	20.000000	100.000000	0.010000	0.000000
SUB-02-03-T0	RG1	02-03-T0	0.004077	20.000000	100.000000	0.010000	0.000000
SUB-02-03-V0	RG1	02-03-V0	0.004077	20.000000	100.000000	0.010000	0.000000
SUB-02-04-I0	RG1	02-04-I0	0.004077	20.000000	100.000000	0.010000	0.000000
SUB-02-04-J0	RG1	02-04-J0	0.004077	20.000000	100.000000	0.010000	0.000000
SUB-02-04-K0	RG1	02-04-K0	0.004077	20.000000	100.000000	0.010000	0.000000
SUB-02-04-L0	RG1	02-04-L0	0.004077	20.000000	100.000000	0.010000	0.000000
SUB-02-08-K0	RG1	02-08-K0	0.004077	20.000000	100.000000	0.010000	0.000000
; Sub 02-10-K0
SUB-02-10-K0	RG1	02-10-K0	0.004000	20.000000	100.000000	0.010000	0.000000
; sub 02-11-M0
SUB-02-11-M0	RG1	02-10-K0	0.004000	20.000000	100.000000	0.010000	0.000000
; SUB 02-16-M0
SUB-02-16-M0	RG1	02-10-K0	0.004000	20.000000	100.000000	0.010000	0.000000
SUB-02-16-N0	RG1	02-16-N0	0.004077	20.000000	100.000000	0.010000	0.000000
SUB-02-16-O0	RG1	02-16-O0	0.004077	20.000000	100.000000	0.010000	0.000000
SUB-02-16-P0	RG1	02-16-P0	0.004077	20.000000	100.000000	0.010000	0.000000
SUB-02-16-Q0	RG1	02-16-Q0	0.004077	20.000000	100.000000	0.010000	0.000000
SUB-02-16-S0	RG1	02-16-S0	0.004077	20.000000	100.000000	0.010000	0.000000
SUB-02-16-X0	RG1	02-16-X0	0.004077	20.000000	100.000000	0.010000	0.000000
; SUB 02-17-M0
SUB-02-17-M0	RG1	02-10-K0	0.004000	20.000000	100.000000	0.010000	0.000000
; SUB 02-19-M0
SUB-02-19-M0	RG1	02-10-K0	0.004000	20.000000	100.000000	0.010000	0.000000
; SUB 02-20-M0
SUB-02-20-M0	RG1	02-10-K0	0.004000	20.000000	100.000000	0.010000	0.000000
; SUB 02-23-M0
SUB-02-23-M0	RG1	02-10-K0	0.004000	20.000000	100.000000	0.010000	0.000000
SUB-02-23-Z0	RG1	02-23-Z0	0.004077	20.000000	100.000000	0.010000	0.000000
SUB-02-24-V0	RG1	02-24-V0	0.004077	20.000000	100.000000	0.010000	0.000000
SUB-02-25-R0	RG1	02-25-R0	0.004077	20.000000	100.000000	0.010000	0.000000
SUB-02-27-A0	RG1	02-27-A0	0.004077	20.000000	100.000000	0.010000	0.000000
SUB-02-27-B0	RG1	02-27-B0	0.004077	20.000000	100.000000	0.010000	0.000000
SUB-02-27-F0	RG1	02-27-F0	0.004077	20.000000	100.000000	0.010000	0.000000
SUB-02-27-J0	RG1	02-27-J0	0.004077	20.000000	100.000000	0.010000	0.000000
SUB-02-27-K0	RG1	02-27-K0	0.004077	20.000000	100.000000	0.010000	0.000000
SUB-02-27-L0	RG1	02-27-L0	0.004077	20.000000	100.000000	0.010000	0.000000
SUB-02-27-N0	RG1	02-27-N0	0.004077	20.000000	100.000000	0.010000	0.000000
SUB-02-28-A0	RG1	02-28-A0	0.004077	20.000000	100.000000	0.010000	0.000000
SUB-02-30-N0	RG1	02-30-N0	0.004077	20.000000	100.000000	0.010000	0.000000
SUB-02-31-A0	RG1	02-31-A0	0.004077	20.000000	100.000000	0.010000	0.000000
SUB-02-31-BX	RG1	02-31-BX	0.004077	20.000000	100.000000	0.010000	0.000000
SUB-02-31-N0	RG1	02-31-N0	0.004077	20.000000	100.000000	0.010000	0.000000
SUB-02-33-A0	RG1	02-33-A0	0.004077	20.000000	100.000000	0.010000	0.000000
SUB-02-34-N0	RG1	02-34-N0	0.004077	20.000000	100.000000	0.010000	0.000000
SUB-02-36-A0	RG1	02-36-A0	0.004077	20.000000	100.000000	0.010000	0.000000
SUB-02-38-N0	RG1	02-38-N0	0.004077	20.000000	100.000000	0.010000	0.000000
SUB-02-39-A0	RG1	02-39-A0	0.004077	20.000000	100.000000	0.010000	0.000000
; Sub 02-40-A0
SUB-02-40-A0	RG1	02-40-A0	0.004000	20.000000	100.000000	0.010000	0.000000
SUB-02-40-L0	RG1	02-40-L0	0.004077	20.000000	100.000000	0.010000	0.000000
SUB-02-40-N0	RG1	02-40-N0	0.004077	20.000000	100.000000	0.010000	0.000000
; Sub 02-41-A0
SUB-02-41-A0	RG1	02-41-A0	0.004000	20.000000	100.000000	0.010000	0.000000
; Subcatchment 02-41-E0
SUB-02-41-E0	RG1	02-41-E0	0.004000	20.000000	100.000000	0.010000	0.000000
; Subcatchment 02-41-H0
SUB-02-41-H0	RG1	02-41-H0	0.004000	20.000000	100.000000	0.010000	0.000000
; Subcatchment 02-41-L0
SUB-02-41-L0	RG1	02-41-L0	0.004000	20.000000	100.000000	0.010000	0.000000
; Sub 02-43-A0
SUB-02-43-A0	RG1	02-43-A0	0.004000	20.000000	100.000000	0.010000	0.000000
SUB-02-43-M0	RG1	02-43-M0	0.004077	20.000000	100.000000	0.010000	0.000000
SUB-02-43-N0	RG1	02-43-N0	0.004077	20.000000	100.000000	0.010000	0.000000
; sub 02-46-AX
SUB-02-46-AX	RG1	02-46-AX	0.004000	20.000000	100.000000	0.010000	0.000000
SUB-02-46-I0	RG1	02-46-I0	0.004077	20.000000	100.000000	0.010000	0.000000
SUB-02-47-G0	RG1	02-47-G0	0.004077	20.000000	100.000000	0.010000	0.000000
SUB-02-47-J0	RG1	02-47-J0	0.004077	20.000000	100.000000	0.010000	0.000000
SUB-02-49-K0	RG1	02-49-K0	0.004077	20.000000	100.000000	0.010000	0.000000
SUB-02-50-E0	RG1	02-50-E0	0.004077	20.000000	100.000000	0.010000	0.000000
SUB-02-50-K0	RG1	02-50-K0	0.004077	20.000000	100.000000	0.010000	0.000000
SUB-02-50-L0	RG1	02-50-L0	0.004077	20.000000	100.000000	0.010000	0.000000
SUB-02-50-N0	RG1	02-50-N0	0.004077	20.000000	100.000000	0.010000	0.000000
SUB-02-52-J0	RG1	02-52-J0	0.004077	20.000000	100.000000	0.010000	0.000000
SUB-03-01-D0	RG1	03-01-D0	0.003389	20.000000	100.000000	0.010000	0.000000
SUB-03-01-G0	RG1	03-01-G0	0.003389	20.000000	100.000000	0.010000	0.000000
SUB-03-01-K0	RG1	03-01-K0	0.003389	20.000000	100.000000	0.010000	0.000000
SUB-03-01-N0	RG1	03-01-N0	0.003389	20.000000	100.000000	0.010000	0.000000
SUB-03-01-R0	RG1	03-01-R0	0.003389	20.000000	100.000000	0.010000	0.000000
SUB-03-01-U0	RG1	03-01-U0	0.003389	20.000000	100.000000	0.010000	0.000000
SUB-03-01-Z0	RG1	03-01-Z0	0.003389	20.000000	100.000000	0.010000	0.000000
SUB-03-02-C0	RG1	03-02-C0	0.003389	20.000000	100.000000	0.010000	0.000000
SUB-03-02-J0	RG1	03-02-J0	0.003389	20.000000	100.000000	0.010000	0.000000
SUB-03-04-R0	RG1	03-04-R0	0.003389	20.000000	100.000000	0.010000	0.000000
SUB-03-04-V0	RG1	03-04-V0	0.003389	20.000000	100.000000	0.010000	0.000000
SUB-03-04-Z0	RG1	03-04-Z0	0.003389	20.000000	100.000000	0.010000	0.000000
SUB-03-05-J0	RG1	03-05-J0	0.003389	20.000000	100.000000	0.010000	0.000000
SUB-03-06-C0	RG1	03-06-C0	0.003389	20.000000	100.000000	0.010000	0.000000
SUB-03-06-J0	RG1	03-06-J0	0.003389	20.000000	100.000000	0.010000	0.000000
SUB-03-07-R0	RG1	03-07-R0	0.003389	20.000000	100.000000	0.010000	0.000000
SUB-03-07-V0	RG1	03-07-V0	0.003389	20.000000	100.000000	0.010000	0.000000
SUB-03-07-Z0	RG1	03-07-Z0	0.003389	20.000000	100.000000	0.010000	0.000000
SUB-03-10-C0	RG1	03-10-C0	0.003389	20.000000	100.000000	0.010000	0.000000
SUB-03-10-J0	RG1	03-10-J0	0.003389	20.000000	100.000000	0.010000	0.000000
SUB-03-14-C0	RG1	03-14-C0	0.003389	20.000000	100.000000	0.010000	0.000000
SUB-03-14-J0	RG1	03-14-J0	0.003389	20.000000	100.000000	0.010000	0.000000
SUB-03-14-N0	RG1	03-14-N0	0.003389	20.000000	100.000000	0.010000	0.000000
SUB-03-14-R0	RG1	03-14-R0	0.003389	20.000000	100.000000	0.010000	0.000000
SUB-03-17-C0	RG1	03-17-C0	0.003389	20.000000	100.000000	0.010000	0.000000
SUB-03-17-J0	RG1	03-17-J0	0.003389	20.000000	100.000000	0.010000	0.000000
SUB-03-18-R0	RG1	03-18-R0	0.003389	20.000000	100.000000	0.010000	0.000000
SUB-03-20-C0	RG1	03-20-C0	0.003389	20.000000	100.000000	0.010000	0.000000
SUB-03-20-J0	RG1	03-20-J0	0.003389	20.000000	100.000000	0.010000	0.000000
SUB-03-22-R0	RG1	03-22-R0	0.003389	20.000000	100.000000	0.010000	0.000000
SUB-03-23-J0	RG1	03-23-J0	0.003389	20.000000	100.000000	0.010000	0.000000
SUB-03-24-C0	RG1	03-24-C0	0.003389	20.000000	100.000000	0.010000	0.000000
SUB-03-27-C0	RG1	03-27-C0	0.003389	20.000000	100.000000	0.010000	0.000000
SUB-03-27-D0	RG1	03-27-D0	0.003389	20.000000	100.000000	0.010000	0.000000
SUB-03-27-G0	RG1	03-27-G0	0.003389	20.000000	100.000000	0.010000	0.000000
SUB-03-27-J0	RG1	03-27-J0	0.003389	20.000000	100.000000	0.010000	0.000000
SUB-03-27-N0	RG1	03-27-N0	0.003389	20.000000	100.000000	0.010000	0.000000
SUB-03-27-R0	RG1	03-27-R0	0.003389	20.000000	100.000000	0.010000	0.000000
SUB-03-27-U0	RG1	03-27-U0	0.003389	20.000000	100.000000	0.010000	0.000000
SUB-03-27-X0	RG1	03-27-X0	0.003389	20.000000	100.000000	0.010000	0.000000
SUB-03-30-C0	RG1	03-30-C0	0.003389	20.000000	100.000000	0.010000	0.000000
SUB-03-30-D0	RG1	03-30-D0	0.003389	20.000000	100.000000	0.010000	0.000000
SUB-03-30-F0	RG1	03-30-F0	0.003389	20.000000	100.000000	0.010000	0.000000
SUB-03-30-J0	RG1	03-30-J0	0.003389	20.000000	100.000000	0.010000	0.000000
SUB-03-30-K0	RG1	03-30-K0	0.003389	20.000000	100.000000	0.010000	0.000000
SUB-03-30-N0	RG1	03-30-N0	0.003389	20.000000	100.000000	0.010000	0.000000
SUB-03-30-S0	RG1	03-30-S0	0.003389	20.000000	100.000000	0.010000	0.000000
SUB-03-30-W0	RG1	03-30-W0	0.003389	20.000000	100.000000	0.010000	0.000000
SUB-03-32-C0	RG1	03-32-C0	0.003389	20.000000	100.000000	0.010000	0.000000
SUB-03-32-K0	RG1	03-32-K0	0.003389	20.000000	100.000000	0.010000	0.000000
SUB-03-35-C0	RG1	03-35-C0	0.003389	20.000000	100.000000	0.010000	0.000000
SUB-03-36-C0	RG1	03-36-C0	0.003389	20.000000	100.000000	0.010000	0.000000
SUB-03-36-K0	RG1	03-36-K0	0.003389	20.000000	100.000000	0.010000	0.000000
SUB-03-37-C0	RG1	03-37-C0	0.003389	20.000000	100.000000	0.010000	0.000000
SUB-03-40-C0	RG1	03-40-C0	0.003389	20.000000	100.000000	0.010000	0.000000
SUB-03-40-F0	RG1	03-40-F0	0.003389	20.000000	100.000000	0.010000	0.000000
SUB-03-40-H0	RG1	03-40-H0	0.003389	20.000000	100.000000	0.010000	0.000000
SUB-03-40-J0	RG1	03-40-J0	0.003389	20.000000	100.000000	0.010000	0.000000
SUB-03-40-K0	RG1	03-40-K0	0.003389	20.000000	100.000000	0.010000	0.000000
SUB-03-40-N0	RG1	03-40-N0	0.003389	20.000000	100.000000	0.010000	0.000000
SUB-03-40-V0	RG1	03-40-V0	0.003389	20.000000	100.000000	0.010000	0.000000
SUB-03-42-K0	RG1	03-42-K0	0.003389	20.000000	100.000000	0.010000	0.000000
SUB-03-42-R0	RG1	03-42-R0	0.004077	20.000000	100.000000	0.010000	0.000000
SUB-03-43-C0	RG1	03-43-C0	0.003389	20.000000	100.000000	0.010000	0.000000
SUB-03-43-V0	RG1	03-43-V0	0.003389	20.000000	100.000000	0.010000	0.000000
SUB-03-44-K0	RG1	03-44-K0	0.003389	20.000000	100.000000	0.010000	0.000000
SUB-03-45-C0	RG1	03-45-C0	0.003389	20.000000	100.000000	0.010000	0.000000
SUB-03-45-R0	RG1	03-45-R0	0.004077	20.000000	100.000000	0.010000	0.000000
SUB-03-47-D0	RG1	03-47-D0	0.003389	20.000000	100.000000	0.010000	0.000000
SUB-03-47-K0	RG1	03-47-K0	0.003389	20.000000	100.000000	0.010000	0.000000
SUB-03-47-V0	RG1	03-47-V0	0.004077	20.000000	100.000000	0.010000	0.000000
SUB-03-49-R0	RG1	03-49-R0	0.004077	20.000000	100.000000	0.010000	0.000000
SUB-03-52-L0	RG1	03-52-L0	0.004077	20.000000	100.000000	0.010000	0.000000
SUB-03-52-M0	RG1	03-52-M0	0.004077	20.000000	100.000000	0.010000	0.000000
SUB-03-52-N0	RG1	03-52-N0	0.004077	20.000000	100.000000	0.010000	0.000000
SUB-03-52-R0	RG1	03-52-R0	0.004077	20.000000	100.000000	0.010000	0.000000
SUB-03-52-S0	RG1	03-52-S0	0.004077	20.000000	100.000000	0.010000	0.000000
SUB-03-52-W0	RG1	03-52-W0	0.004077	20.000000	100.000000	0.010000	0.000000
SUB-04-01-A0	RG1	04-01-A0	0.003389	20.000000	100.000000	0.010000	0.000000
SUB-04-01-D0	RG1	04-01-D0	0.003389	20.000000	100.000000	0.010000	0.000000
SUB-04-01-G0	RG1	04-01-G0	0.003389	20.000000	100.000000	0.010000	0.000000
SUB-04-01-J0	RG1	04-01-J0	0.003389	20.000000	100.000000	0.010000	0.000000
SUB-04-01-N0	RG1	04-01-N0	0.003389	20.000000	100.000000	0.010000	0.000000
SUB-04-01-Q0	RG1	04-01-Q0	0.003389	20.000000	100.000000	0.010000	0.000000
SUB-04-01-T0	RG1	04-01-T0	0.003389	20.000000	100.000000	0.010000	0.000000
SUB-04-01-W0	RG1	04-01-W0	0.003389	20.000000	100.000000	0.010000	0.000000
SUB-04-01-Z0	RG1	04-01-Z0	0.003389	20.000000	100.000000	0.010000	0.000000
SUB-04-04-B0	RG1	04-04-B0	0.003389	20.000000	100.000000	0.010000	0.000000
SUB-04-04-C0	RG1	04-04-C0	0.003389	20.000000	100.000000	0.010000	0.000000
SUB-04-04-D0	RG1	04-04-D0	0.003389	20.000000	100.000000	0.010000	0.000000
SUB-04-04-G0	RG1	04-04-G0	0.003389	20.000000	100.000000	0.010000	0.000000
SUB-04-04-I0	RG1	04-04-I0	0.003389	20.000000	100.000000	0.010000	0.000000
SUB-04-04-N0	RG1	04-04-N0	0.003389	20.000000	100.000000	0.010000	0.000000
SUB-04-04-Q0	RG1	04-04-Q0	0.003389	20.000000	100.000000	0.010000	0.000000
SUB-04-04-T0	RG1	04-04-T0	0.003389	20.000000	100.000000	0.010000	0.000000
SUB-04-04-X0	RG1	04-04-X0	0.003389	20.000000	100.000000	0.010000	0.000000
SUB-04-07-C0	RG1	04-07-C0	0.003389	20.000000	100.000000	0.010000	0.000000
SUB-04-07-G0	RG1	04-07-G0	0.003389	20.000000	100.000000	0.010000	0.000000
SUB-04-07-K0	RG1	04-07-K0	0.003389	20.000000	100.000000	0.010000	0.000000
SUB-04-07-N0	RG1	04-07-N0	0.003389	20.000000	100.000000	0.010000	0.000000
SUB-04-07-Q0	RG1	04-07-Q0	0.003389	20.000000	100.000000	0.010000	0.000000
SUB-04-07-T0	RG1	04-07-T0	0.003389	20.000000	100.000000	0.010000	0.000000
SUB-04-07-W0	RG1	04-07-W0	0.003389	20.000000	100.000000	0.010000	0.000000
SUB-04-07-Z0	RG1	04-07-Z0	0.003389	20.000000	100.000000	0.010000	0.000000
SUB-04-10-F0	RG1	04-10-F0	0.003389	20.000000	100.000000	0.010000	0.000000
SUB-04-10-J0	RG1	04-10-J0	0.003389	20.000000	100.000000	0.010000	0.000000
SUB-04-10-N0	RG1	04-10-N0	0.003389	20.000000	100.000000	0.010000	0.000000
SUB-04-10-R0	RG1	04-10-R0	0.003389	20.000000	100.000000	0.010000	0.000000
SUB-04-10-W0	RG1	04-10-W0	0.003389	20.000000	100.000000	0.010000	0.000000
SUB-04-10-Z0	RG1	04-10-Z0	0.003389	20.000000	100.000000	0.010000	0.000000
SUB-04-14-F0	RG1	04-14-F0	0.003389	20.000000	100.000000	0.010000	0.000000
SUB-04-14-J0	RG1	04-14-J0	0.003389	20.000000	100.000000	0.010000	0.000000
SUB-04-14-N0	RG1	04-14-N0	0.003389	20.000000	100.000000	0.010000	0.000000
SUB-04-14-R0	RG1	04-14-R0	0.003389	20.000000	100.000000	0.010000	0.000000
SUB-04-14-V0	RG1	04-14-V0	0.003389	20.000000	100.000000	0.010000	0.000000
SUB-04-14-Z0	RG1	04-14-Z0	0.003389	20.000000	100.000000	0.010000	0.000000
SUB-04-17-F0	RG1	04-17-F0	0.003389	20.000000	100.000000	0.010000	0.000000
SUB-04-17-J0	RG1	04-17-J0	0.003389	20.000000	100.000000	0.010000	0.000000
SUB-04-17-N0	RG1	04-17-N0	0.003389	20.000000	100.000000	0.010000	0.000000
SUB-04-17-R0	RG1	04-17-R0	0.003389	20.000000	100.000000	0.010000	0.000000
SUB-04-17-V0	RG1	04-17-V0	0.003389	20.000000	100.000000	0.010000	0.000000
SUB-04-17-Z0	RG1	04-17-Z0	0.003389	20.000000	100.000000	0.010000	0.000000
SUB-04-20-A0	RG1	04-20-A0	0.003389	20.000000	100.000000	0.010000	0.000000
SUB-04-20-D0	RG1	04-20-D0	0.003389	20.000000	100.000000	0.010000	0.000000
SUB-04-20-G0	RG1	04-20-G0	0.003389	20.000000	100.000000	0.010000	0.000000
SUB-04-20-J0	RG1	04-20-J0	0.003389	20.000000	100.000000	0.010000	0.000000
SUB-04-20-L0	RG1	04-20-L0	0.003389	20.000000	100.000000	0.010000	0.000000
SUB-04-20-N0	RG1	04-20-N0	0.003389	20.000000	100.000000	0.010000	0.000000
SUB-04-20-R0	RG1	04-20-R0	0.003389	20.000000	100.000000	0.010000	0.000000
SUB-04-20-V0	RG1	04-20-V0	0.003389	20.000000	100.000000	0.010000	0.000000
SUB-04-20-Z0	RG1	04-20-Z0	0.003389	20.000000	100.000000	0.010000	0.000000
SUB-04-24-A0	RG1	04-24-A0	0.003389	20.000000	100.000000	0.010000	0.000000
SUB-04-24-E0	RG1	04-24-E0	0.003389	20.000000	100.000000	0.010000	0.000000
SUB-04-24-I0	RG1	04-24-I0	0.003389	20.000000	100.000000	0.010000	0.000000
SUB-04-24-M0	RG1	04-24-M0	0.003389	20.000000	100.000000	0.010000	0.000000
SUB-04-24-N0	RG1	04-24-N0	0.003389	20.000000	100.000000	0.010000	0.000000
SUB-04-24-Q0	RG1	04-24-Q0	0.003389	20.000000	100.000000	0.010000	0.000000
SUB-04-24-T0	RG1	04-24-T0	0.003389	20.000000	100.000000	0.010000	0.000000
SUB-04-24-X0	RG1	04-24-X0	0.003389	20.000000	100.000000	0.010000	0.000000
SUB-04-27-A0	RG1	04-27-A0	0.003389	20.000000	100.000000	0.010000	0.000000
SUB-04-27-E0	RG1	04-27-E0	0.003389	20.000000	100.000000	0.010000	0.000000
SUB-04-27-I0	RG1	04-27-I0	0.003389	20.000000	100.000000	0.010000	0.000000
SUB-04-27-M0	RG1	04-27-M0	0.003389	20.000000	100.000000	0.010000	0.000000
SUB-04-27-O0	RG1	04-27-O0	0.003389	20.000000	100.000000	0.010000	0.000000
SUB-04-27-S0	RG1	04-27-S0	0.003389	20.000000	100.000000	0.010000	0.000000
SUB-04-27-W0	RG1	04-27-W0	0.003389	20.000000	100.000000	0.010000	0.000000
SUB-04-30-A0	RG1	04-30-A0	0.003389	20.000000	100.000000	0.010000	0.000000
SUB-04-30-D0	RG1	04-30-D0	0.003389	20.000000	100.000000	0.010000	0.000000
SUB-04-30-G0	RG1	04-30-G0	0.003389	20.000000	100.000000	0.010000	0.000000
SUB-04-30-J0	RG1	04-30-J0	0.003389	20.000000	100.000000	0.010000	0.000000
SUB-04-30-N0	RG1	04-30-N0	0.003389	20.000000	100.000000	0.010000	0.000000
SUB-04-30-S0	RG1	04-30-S0	0.003389	20.000000	100.000000	0.010000	0.000000
SUB-04-30-W0	RG1	04-30-W0	0.003389	20.000000	100.000000	0.010000	0.000000
SUB-04-33-G0	RG1	04-33-G0	0.003389	20.000000	100.000000	0.010000	0.000000
SUB-04-33-J0	RG1	04-33-J0	0.003389	20.000000	100.000000	0.010000	0.000000
SUB-04-33-M0	RG1	04-33-M0	0.003389	20.000000	100.000000	0.010000	0.000000
SUB-04-33-O0	RG1	04-33-O0	0.003389	20.000000	100.000000	0.010000	0.000000
SUB-04-33-T0	RG1	04-33-T0	0.003389	20.000000	100.000000	0.010000	0.000000
SUB-04-33-W0	RG1	04-33-W0	0.003389	20.000000	100.000000	0.010000	0.000000
SUB-04-34-A0	RG1	04-34-A0	0.003389	20.000000	100.000000	0.010000	0.000000
SUB-04-34-E0	RG1	04-34-E0	0.003389	20.000000	100.000000	0.010000	0.000000
SUB-04-36-A0	RG1	04-36-A0	0.003389	20.000000	100.000000	0.010000	0.000000
SUB-04-36-G0	RG1	04-36-G0	0.003389	20.000000	100.000000	0.010000	0.000000
SUB-04-36-K0	RG1	04-36-K0	0.003389	20.000000	100.000000	0.010000	0.000000
SUB-04-36-N0	RG1	04-36-N0	0.003389	20.000000	100.000000	0.010000	0.000000
SUB-04-37-A0	RG1	04-37-A0	0.003389	20.000000	100.000000	0.010000	0.000000
SUB-04-37-C0	RG1	04-37-C0	0.003389	20.000000	100.000000	0.010000	0.000000
SUB-04-37-G0	RG1	04-37-G0	0.003389	20.000000	100.000000	0.010000	0.000000
SUB-04-37-N0	RG1	04-37-N0	0.003389	20.000000	100.000000	0.010000	0.000000
SUB-04-37-R0	RG1	04-37-R0	0.003389	20.000000	100.000000	0.010000	0.000000
SUB-04-37-W0	RG1	04-37-W0	0.003389	20.000000	100.000000	0.010000	0.000000
SUB-04-38-N0	RG1	04-38-N0	0.003389	20.000000	100.000000	0.010000	0.000000
SUB-04-40-A0	RG1	04-40-A0	0.003389	20.000000	100.000000	0.010000	0.000000
SUB-04-40-C0	RG1	04-40-C0	0.003389	20.000000	100.000000	0.010000	0.000000
SUB-04-40-G0	RG1	04-40-G0	0.003389	20.000000	100.000000	0.010000	0.000000
SUB-04-40-H0	RG1	04-40-H0	0.003389	20.000000	100.000000	0.010000	0.000000
SUB-04-40-K0	RG1	04-40-K0	0.003389	20.000000	100.000000	0.010000	0.000000
SUB-04-40-N0	RG1	04-40-N0	0.003389	20.000000	100.000000	0.010000	0.000000
SUB-04-40-S0	RG1	04-40-S0	0.003389	20.000000	100.000000	0.010000	0.000000
SUB-04-40-W0	RG1	04-40-W0	0.003389	20.000000	100.000000	0.010000	0.000000
SUB-04-43-A0	RG1	04-43-A0	0.003389	20.000000	100.000000	0.010000	0.000000
SUB-04-43-D0	RG1	04-43-D0	0.003389	20.000000	100.000000	0.010000	0.000000
SUB-04-43-G0	RG1	04-43-G0	0.003389	20.000000	100.000000	0.010000	0.000000
SUB-04-43-H0	RG1	04-43-H0	0.004077	20.000000	100.000000	0.010000	0.000000
SUB-04-43-K0	RG1	04-43-K0	0.004077	20.000000	100.000000	0.010000	0.000000
SUB-04-43-N0	RG1	04-43-N0	0.004077	20.000000	100.000000	0.010000	0.000000
SUB-04-43-R0	RG1	04-43-R0	0.004077	20.000000	100.000000	0.010000	0.000000
SUB-04-43-W0	RG1	04-43-W0	0.004077	20.000000	100.000000	0.010000	0.000000
SUB-04-47-A0	RG1	04-47-A0	0.004077	20.000000	100.000000	0.010000	0.000000
SUB-04-47-D0	RG1	04-47-D0	0.004077	20.000000	100.000000	0.010000	0.000000
SUB-04-47-G0	RG1	04-47-G0	0.004077	20.000000	100.000000	0.010000	0.000000
SUB-04-47-K0	RG1	04-47-K0	0.004077	20.000000	100.000000	0.010000	0.000000
SUB-04-47-N0	RG1	04-47-N0	0.004077	20.000000	100.000000	0.010000	0.000000
SUB-04-47-O0	RG1	04-47-O0	0.004077	20.000000	100.000000	0.010000	0.000000
SUB-04-47-R0	RG1	04-47-R0	0.004077	20.000000	100.000000	0.010000	0.000000
SUB-04-47-W0	RG1	04-47-W0	0.004077	20.000000	100.000000	0.010000	0.000000
SUB-04-48-O0	RG1	04-48-O0	0.004077	20.000000	100.000000	0.010000	0.000000
SUB-04-50-A0	RG1	04-50-A0	0.004077	20.000000	100.000000	0.010000	0.000000
SUB-04-50-D0	RG1	04-50-D0	0.004077	20.000000	100.000000	0.010000	0.000000
SUB-04-50-G0	RG1	04-50-G0	0.004077	20.000000	100.000000	0.010000	0.000000
SUB-04-50-J0	RG1	04-50-J0	0.004077	20.000000	100.000000	0.010000	0.000000
SUB-04-50-N0	RG1	04-50-N0	0.004077	20.000000	100.000000	0.010000	0.000000
SUB-04-52-A0	RG1	04-52-A0	0.004077	20.000000	100.000000	0.010000	0.000000
SUB-05-01-H0	RG1	05-01-H0	0.003389	20.000000	100.000000	0.010000	0.000000
SUB-05-01-K0	RG1	05-01-K0	0.003389	20.000000	100.000000	0.010000	0.000000
SUB-05-01-M0	RG1	05-01-M0	0.003389	20.000000	100.000000	0.010000	0.000000
SUB-05-01-P0	RG1	05-01-P0	0.003389	20.000000	100.000000	0.010000	0.000000
SUB-05-01-R0	RG1	05-01-R0	0.003389	20.000000	100.000000	0.010000	0.000000
SUB-05-01-W0	RG1	05-01-W0	0.003389	20.000000	100.000000	0.010000	0.000000
SUB-05-02-N0	RG1	05-02-N0	0.003389	20.000000	100.000000	0.010000	0.000000
SUB-05-04-N0	RG1	05-04-N0	0.003389	20.000000	100.000000	0.010000	0.000000
SUB-05-04-Q0	RG1	05-04-Q0	0.003389	20.000000	100.000000	0.010000	0.000000
SUB-05-05-K0	RG1	05-05-K0	0.003389	20.000000	100.000000	0.010000	0.000000
SUB-05-07-K0	RG1	05-07-K0	0.003389	20.000000	100.000000	0.010000	0.000000
SUB-05-07-Q0	RG1	05-07-Q0	0.003389	20.000000	100.000000	0.010000	0.000000
SUB-05-07-T0	RG1	05-07-T0	0.003389	20.000000	100.000000	0.010000	0.000000
SUB-05-08-N0	RG1	05-08-N0	0.003389	20.000000	100.000000	0.010000	0.000000
SUB-05-10-C0	RG1	05-10-C0	0.003389	20.000000	100.000000	0.010000	0.000000
SUB-05-11-C0	RG1	05-11-C0	0.003389	20.000000	100.000000	0.010000	0.000000
SUB-05-11-K0	RG1	05-11-K0	0.003389	20.000000	100.000000	0.010000	0.000000
SUB-05-11-N0	RG1	05-11-N0	0.003389	20.000000	100.000000	0.010000	0.000000
SUB-05-11-P0	RG1	05-11-P0	0.003389	20.000000	100.000000	0.010000	0.000000
SUB-05-11-Q0	RG1	05-11-Q0	0.003389	20.000000	100.000000	0.010000	0.000000
SUB-05-11-T0	RG1	05-11-T0	0.003389	20.000000	100.000000	0.010000	0.000000
SUB-05-13-C0	RG1	05-13-C0	0.003389	20.000000	100.000000	0.010000	0.000000
SUB-05-13-T0	RG1	05-13-T0	0.003389	20.000000	100.000000	0.010000	0.000000
SUB-05-14-N0	RG1	05-14-N0	0.003389	20.000000	100.000000	0.010000	0.000000
SUB-05-14-T0	RG1	05-14-T0	0.003389	20.000000	100.000000	0.010000	0.000000
SUB-05-14-W0	RG1	05-14-W0	0.003389	20.000000	100.000000	0.010000	0.000000
SUB-05-14-Z0	RG1	05-14-Z0	0.003389	20.000000	100.000000	0.010000	0.000000
SUB-05-15-C0	RG1	05-15-C0	0.003389	20.000000	100.000000	0.010000	0.000000
SUB-05-15-K0	RG1	05-15-K0	0.003389	20.000000	100.000000	0.010000	0.000000
SUB-05-17-T0	RG1	05-17-T0	0.003389	20.000000	100.000000	0.010000	0.000000
SUB-05-17-V0	RG1	05-17-V0	0.003389	20.000000	100.000000	0.010000	0.000000
SUB-05-17-W0	RG1	05-17-W0	0.003389	20.000000	100.000000	0.010000	0.000000
SUB-05-18-D0	RG1	05-18-D0	0.003389	20.000000	100.000000	0.010000	0.000000
SUB-05-18-K0	RG1	05-18-K0	0.003389	20.000000	100.000000	0.010000	0.000000
SUB-05-19-D0	RG1	05-19-D0	0.003389	20.000000	100.000000	0.010000	0.000000
SUB-05-20-D0	RG1	05-20-D0	0.003389	20.000000	100.000000	0.010000	0.000000
SUB-05-20-T0	RG1	05-20-T0	0.003389	20.000000	100.000000	0.010000	0.000000
SUB-05-20-W0	RG1	05-20-W0	0.003389	20.000000	100.000000	0.010000	0.000000
SUB-05-20-Z0	RG1	05-20-Z0	0.003389	20.000000	100.000000	0.010000	0.000000
SUB-05-21-K0	RG1	05-21-K0	0.003389	20.000000	100.000000	0.010000	0.000000
SUB-05-23-D0	RG1	05-23-D0	0.003389	20.000000	100.000000	0.010000	0.000000
SUB-05-24-T0	RG1	05-24-T0	0.003389	20.000000	100.000000	0.010000	0.000000
SUB-05-24-W0	RG1	05-24-W0	0.003389	20.000000	100.000000	0.010000	0.000000
SUB-05-24-Z0	RG1	05-24-Z0	0.003389	20.000000	100.000000	0.010000	0.000000
SUB-05-25-D0	RG1	05-25-D0	0.003389	20.000000	100.000000	0.010000	0.000000
SUB-05-25-K0	RG1	05-25-K0	0.003389	20.000000	100.000000	0.010000	0.000000
SUB-05-26-E0	RG1	05-26-E0	0.003389	20.000000	100.000000	0.010000	0.000000
SUB-05-26-TX	RG1	05-26-TX	0.003389	20.000000	100.000000	0.010000	0.000000
SUB-05-27-F0	RG1	05-27-F0	0.003389	20.000000	100.000000	0.010000	0.000000
SUB-05-27-G0	RG1	05-27-G0	0.003389	20.000000	100.000000	0.010000	0.000000
SUB-05-27-K0	RG1	05-27-K0	0.003389	20.000000	100.000000	0.010000	0.000000
SUB-05-27-P0	RG1	05-27-P0	0.003389	20.000000	100.000000	0.010000	0.000000
SUB-05-27-T0	RG1	05-27-T0	0.003389	20.000000	100.000000	0.010000	0.000000
SUB-05-27-X0	RG1	05-27-X0	0.003389	20.000000	100.000000	0.010000	0.000000
SUB-05-28-F0	RG1	05-28-F0	0.003389	20.000000	100.000000	0.010000	0.000000