[TITLE]
;;Project Title/Notes

[OPTIONS]
;;Option             Value
FLOW_UNITS           CFS
INFILTRATION         HORTON
FLOW_ROUTING         DYNWAVE
LINK_OFFSETS         DEPTH
MIN_SLOPE            0
ALLOW_PONDING        YES
SKIP_STEADY_STATE    NO

IGNORE_SNOWMELT      YES
IGNORE_GROUNDWATER   YES
IGNORE_QUALITY       YES
START_DATE           04/27/2008
START_TIME           00:00:00
REPORT_START_DATE    04/27/2008
REPORT_START_TIME    00:00:00
END_DATE             04/29/2008
END_TIME             00:00:00
SWEEP_START          01/01
SWEEP_END            12/31
DRY_DAYS             5.000000
REPORT_STEP          00:05:00
WET_STEP             00:05:00
DRY_STEP             01:00:00
ROUTING_STEP         0:00:10 

INERTIAL_DAMPING     NONE
NORMAL_FLOW_LIMITED  BOTH
FORCE_MAIN_EQUATION  H-W
VARIABLE_STEP        0.75
LENGTHENING_STEP     10
MIN_SURFAREA         12.557
MAX_TRIALS           3
HEAD_TOLERANCE       0.005000
SYS_FLOW_TOL         5
LAT_FLOW_TOL         5
MINIMUM_STEP         0
THREADS              1

[EVAPORATION]
;;Data Source    Parameters
;;-------------- ----------------
CONSTANT         0.000000
DRY_ONLY         NO

[RAINGAGES]
;;Name           Format    Interval SCF      Source    
;;-------------- --------- ------ ------ ----------
; Central Fire Station Rain Gauge
RAINGAGE-3       CUMULATIVE 0.250000 1.000000 TIMESERIES TIMESERI-1      

[SUBCATCHMENTS]
;;Name           Rain Gage        Outlet           Area     %Imperv  Width    %Slope   CurbLen  SnowPack        
;;-------------- ---------------- ---------------- -------- -------- -------- -------- -------- ----------------
0                RAINGAGE-3       JCT-306          50.433675 55.947000 100.000000 6.626307 0.000000                 
1                RAINGAGE-3       JCT-6872         54.077055 59.376000 100.000000 14.829830 0.000000                 
10               RAINGAGE-3       JCT-4758         80.950508 77.368000 100.000000 2.940452 0.000000                 
11               RAINGAGE-3       JCT-4200         76.552991 52.678000 100.000000 8.596186 0.000000                 
12               RAINGAGE-3       JCT-6068         83.110745 35.448000 100.000000 7.754479 0.000000                 
13               RAINGAGE-3       JCT-4898         100.690019 60.955000 100.000000 5.850715 0.000000                 
14               RAINGAGE-3       JCT-881          124.121826 50.876000 100.000000 8.615906 0.000000                 
16               RAINGAGE-3       JCT-336          27.322988 55.684000 100.000000 5.498567 0.000000                 
17               RAINGAGE-3       JCT-6862         71.432229 15.561000 100.000000 7.513754 0.000000                 
18               RAINGAGE-3       JCT-3770         16.928217 44.358000 100.000000 9.963074 0.000000                 
19               RAINGAGE-3       JCT-192          31.116083 48.799000 100.000000 9.338709 0.000000                 
2                RAINGAGE-3       JCT-44           60.402545 53.985000 100.000000 11.032044 0.000000                 
20               RAINGAGE-3       JCT-212          49.275036 44.365000 100.000000 8.397875 0.000000                 
21               RAINGAGE-3       JCT-1762         21.787768 47.619000 100.000000 9.466841 0.000000                 
22               RAINGAGE-3       JCT-2488         29.993018 48.908000 100.000000 8.403323 0.000000                 
23               RAINGAGE-3       JCT-2476         46.011826 45.325000 100.000000 13.489118 0.000000                 
24               RAINGAGE-3       JCT-1820         23.024378 53.946000 100.000000 7.153188 0.000000                 
25               RAINGAGE-3       JCT-3522         40.684883 63.546000 100.000000 10.022033 0.000000                 
26               RAINGAGE-3       JCT-3398         38.423571 83.629000 100.000000 7.225556 0.000000                 
27               RAINGAGE-3       JCT-2722         17.601190 59.684000 100.000000 8.235877 0.000000                 
28               RAINGAGE-3       JCT-2702         45.535767 64.419000 100.000000 7.527146 0.000000                 
29               RAINGAGE-3       JCT-2016         42.821228 69.922000 100.000000 6.232206 0.000000                 
3                RAINGAGE-3       JCT-3752         38.252151 45.380000 100.000000 17.349835 0.000000                 
30               RAINGAGE-3       JCT-6698         55.424589 58.380000 100.000000 4.286046 0.000000                 
31               RAINGAGE-3       JCT-2188         66.001886 71.542000 100.000000 4.118910 0.000000                 
32               RAINGAGE-3       JCT-2222         115.413659 85.757000 100.000000 3.731192 0.000000                 
33               RAINGAGE-3       JCT-2184         71.102542 77.599000 100.000000 3.987307 0.000000                 
34               RAINGAGE-3       JCT-1256         59.820847 59.474000 100.000000 9.629724 0.000000                 
35               RAINGAGE-3       JCT-1032         41.726077 49.099000 100.000000 9.095756 0.000000                 
36               RAINGAGE-3       JCT-1334         67.590966 62.911000 100.000000 9.371560 0.000000                 
37               RAINGAGE-3       JCT-840          45.100881 47.164000 100.000000 17.344127 0.000000                 
38               RAINGAGE-3       JCT-3650         27.498643 76.010000 100.000000 10.184870 0.000000                 
39               RAINGAGE-3       JCT-2884         58.291843 80.064000 100.000000 4.558761 0.000000                 
4                RAINGAGE-3       JCT-6594         60.085044 73.314000 100.000000 4.981268 0.000000                 
40               RAINGAGE-3       JCT-769          45.594879 57.306000 100.000000 4.012222 0.000000                 
41               RAINGAGE-3       JCT-2374         28.773273 82.540000 100.000000 3.512931 0.000000                 
42               RAINGAGE-3       JCT-877          87.688864 67.312000 100.000000 3.687350 0.000000                 
43               RAINGAGE-3       JCT-3970         126.290812 67.537000 100.000000 3.456819 0.000000                 
44               RAINGAGE-3       JCT-4036         56.403802 69.733000 100.000000 5.496491 0.000000                 
45               RAINGAGE-3       JCT-5010         39.959632 76.425000 100.000000 4.248258 0.000000                 
46               RAINGAGE-3       JCT-5140         18.571179 45.567000 100.000000 5.680138 0.000000                 
47               RAINGAGE-3       JCT-4350         69.932751 63.964000 100.000000 4.839993 0.000000                 
48               RAINGAGE-3       JCT-5502         133.938931 50.135000 100.000000 5.831909 0.000000                 
49               RAINGAGE-3       JCT-6052         80.769839 72.077000 100.000000 4.121231 0.000000                 
5                RAINGAGE-3       JCT-3128         76.405740 69.419000 100.000000 3.888524 0.000000                 
50               RAINGAGE-3       JCT-6018         71.199845 39.784000 100.000000 8.569202 0.000000                 
51               RAINGAGE-3       JCT-5840         58.410288 38.189000 100.000000 7.893855 0.000000                 
52               RAINGAGE-3       JCT-6252         49.724955 31.863000 100.000000 9.171618 0.000000                 
53               RAINGAGE-3       JCT-2140         5.160988 57.697000 100.000000 3.988194 0.000000                 
54               RAINGAGE-3       JCT-2152         32.847142 57.342000 100.000000 6.197324 0.000000                 
55               RAINGAGE-3       JCT-3416         13.000888 53.519000 100.000000 5.754491 0.000000                 
56               RAINGAGE-3       JCT-3440         13.959394 57.932000 100.000000 8.012878 0.000000                 
57               RAINGAGE-3       JCT-2480         22.301216 60.622000 100.000000 5.023637 0.000000                 
58               RAINGAGE-3       JCT-2760         23.891255 57.717000 100.000000 8.995932 0.000000                 
59               RAINGAGE-3       JCT-799          53.057111 77.221000 100.000000 9.115199 0.000000                 
6                RAINGAGE-3       JCT-775          29.775206 74.684000 100.000000 6.079423 0.000000                 
60               RAINGAGE-3       JCT-5102         31.693359 31.808000 100.000000 7.032408 0.000000                 
61               RAINGAGE-3       JCT-4584         56.401663 34.811000 100.000000 13.057174 0.000000                 
62               RAINGAGE-3       JCT-4534         11.408111 74.941000 100.000000 5.418001 0.000000                 
63               RAINGAGE-3       JCT-4966         29.625777 69.160000 100.000000 3.547752 0.000000                 
64               RAINGAGE-3       JCT-4856         16.978885 70.205000 100.000000 1.601658 0.000000                 
65               RAINGAGE-3       JCT-4546         22.979947 34.990000 100.000000 7.921158 0.000000                 
66               RAINGAGE-3       JCT-4812         28.345721 48.406000 100.000000 10.117232 0.000000                 
67               RAINGAGE-3       JCT-5316         52.326501 29.475000 100.000000 7.295477 0.000000                 
68               RAINGAGE-3       JCT-5866         47.594698 52.205000 100.000000 6.570896 0.000000                 
69               RAINGAGE-3       JCT-6048         62.478870 66.535000 100.000000 5.283373 0.000000                 
7                RAINGAGE-3       JCT-2918         90.209863 50.945000 100.000000 6.828081 0.000000                 
70               RAINGAGE-3       JCT-592          42.759222 54.176000 100.000000 10.704777 0.000000                 
71               RAINGAGE-3       JCT-1190         20.030645 48.524000 100.000000 14.709137 0.000000                 
72               RAINGAGE-3       JCT-660          35.406713 63.386000 100.000000 11.312114 0.000000                 
73               RAINGAGE-3       JCT-2170         52.524157 73.337000 100.000000 3.595534 0.000000                 
74               RAINGAGE-3       JCT-270          45.385186 66.337000 100.000000 6.925835 0.000000                 
75               RAINGAGE-3       JCT-3326         22.851379 37.624000 100.000000 14.182875 0.000000                 
76               RAINGAGE-3       JCT-3486         39.308088 49.703000 100.000000 6.865603 0.000000                 
77               RAINGAGE-3       JCT-368          18.556621 37.017000 100.000000 9.236579 0.000000                 
78               RAINGAGE-3       JCT-978          36.839739 48.702000 100.000000 14.556596 0.000000                 
79               RAINGAGE-3       JCT-2860         23.155067 79.867000 100.000000 5.349240 0.000000                 
80               RAINGAGE-3       JCT-2812         25.403314 93.366000 100.000000 2.039735 0.000000                 
81               RAINGAGE-3       JCT-6430         25.739390 77.767000 100.000000 3.028244 0.000000                 
82               RAINGAGE-3       JCT-2710         17.308956 67.804000 100.000000 4.801758 0.000000                 
83               RAINGAGE-3       JCT-112          24.532006 47.221000 100.000000 11.629835 0.000000                 
84               RAINGAGE-3       JCT-3466         21.600437 65.828000 100.000000 3.943808 0.000000                 
9                RAINGAGE-3       JCT-4262         71.841323 41.509000 100.000000 8.921666 0.000000                 

[SUBAREAS]
;;Subcatchment   N-Imperv   N-Perv     S-Imperv   S-Perv     PctZero    RouteTo    PctRouted 
;;-------------- ---------- ---------- ---------- ---------- ---------- ---------- ----------
0                0.100000   0.030000   0.200000   0.250000   0.000000   PERVIOUS   100.000000
1                0.100000   0.030000   0.200000   0.250000   0.000000   OUTLET    
10               0.100000   0.030000   0.200000   0.250000   0.000000   OUTLET    
11               0.100000   0.030000   0.200000   0.250000   0.000000   PERVIOUS   100.000000
12               0.100000   0.030000   0.200000   0.250000   0.000000   PERVIOUS   100.000000
13               0.100000   0.030000   0.200000   0.250000   0.000000   PERVIOUS   100.000000
14               0.100000   0.030000   0.200000   0.250000   0.000000   PERVIOUS   100.000000
16               0.100000   0.030000   0.200000   0.250000   0.000000   PERVIOUS   100.000000
17               0.100000   0.030000   0.200000   0.250000   0.000000   PERVIOUS   100.000000
18               0.100000   0.030000   0.200000   0.250000   0.000000   PERVIOUS   100.000000
19               0.100000   0.030000   0.200000   0.250000   0.000000   PERVIOUS   100.000000
2                0.100000   0.030000   0.200000   0.250000   0.000000   OUTLET    
20               0.100000   0.030000   0.200000   0.250000   0.000000   PERVIOUS   100.000000
21               0.100000   0.030000   0.200000   0.250000   0.000000   PERVIOUS   100.000000
22               0.100000   0.030000   0.200000   0.250000   0.000000   OUTLET    
23               0.100000   0.030000   0.200000   0.250000   0.000000   OUTLET    
24               0.100000   0.030000   0.200000   0.250000   0.000000   OUTLET    
25               0.100000   0.030000   0.200000   0.250000   0.000000   OUTLET    
26               0.100000   0.030000   0.200000   0.250000   0.000000   OUTLET    
27               0.100000   0.030000   0.200000   0.250000   0.000000   OUTLET    
28               0.100000   0.030000   0.200000   0.250000   0.000000   OUTLET    
29               0.100000   0.030000   0.200000   0.250000   0.000000   OUTLET    
3                0.100000   0.030000   0.200000   0.250000   0.000000   OUTLET    
30               0.100000   0.030000   0.200000   0.250000   0.000000   OUTLET    
31               0.100000   0.030000   0.200000   0.250000   0.000000   OUTLET    
32               0.100000   0.030000   0.200000   0.250000   0.000000   OUTLET    
33               0.100000   0.030000   0.200000   0.250000   0.000000   OUTLET    
34               0.100000   0.030000   0.200000   0.250000   0.000000   PERVIOUS   100.000000
35               0.100000   0.030000   0.200000   0.250000   0.000000   OUTLET    
36               0.100000   0.030000   0.200000   0.250000   0.000000   OUTLET    
37               0.100000   0.030000   0.200000   0.250000   0.000000   PERVIOUS   100.000000
38               0.100000   0.030000   0.200000   0.250000   0.000000   OUTLET    
39               0.100000   0.030000   0.200000   0.250000   0.000000   OUTLET    
4                0.100000   0.030000   0.200000   0.250000   0.000000   OUTLET    
40               0.100000   0.030000   0.200000   0.250000   0.000000   OUTLET    
41               0.100000   0.030000   0.200000   0.250000   0.000000   OUTLET    
42               0.100000   0.030000   0.200000   0.250000   0.000000   OUTLET    
43               0.100000   0.030000   0.200000   0.250000   0.000000   OUTLET    
44               0.100000   0.030000   0.200000   0.250000   0.000000   PERVIOUS   100.000000
45               0.100000   0.030000   0.200000   0.250000   0.000000   OUTLET    
46               0.100000   0.030000   0.200000   0.250000   0.000000   OUTLET    
47               0.100000   0.030000   0.200000   0.250000   0.000000   OUTLET    
48               0.100000   0.030000   0.200000   0.250000   0.000000   OUTLET    
49               0.100000   0.030000   0.200000   0.250000   0.000000   PERVIOUS   100.000000
5                0.100000   0.030000   0.200000   0.250000   0.000000   OUTLET    
50               0.100000   0.030000   0.200000   0.250000   0.000000   PERVIOUS   100.000000
51               0.100000   0.030000   0.200000   0.250000   0.000000   PERVIOUS   100.000000
52               0.100000   0.030000   0.200000   0.250000   0.000000   PERVIOUS   100.000000
53               0.100000   0.030000   0.200000   0.250000   0.000000   OUTLET    
54               0.100000   0.030000   0.200000   0.250000   0.000000   OUTLET    
55               0.100000   0.030000   0.200000   0.250000   0.000000   OUTLET    
56               0.100000   0.030000   0.200000   0.250000   0.000000   PERVIOUS   100.000000
57               0.100000   0.030000   0.200000   0.250000   0.000000   OUTLET    
58               0.100000   0.030000   0.200000   0.250000   0.000000   OUTLET    
59               0.100000   0.030000   0.200000   0.250000   0.000000   OUTLET    
6                0.100000   0.030000   0.200000   0.250000   0.000000   OUTLET    
60               0.100000   0.030000   0.200000   0.250000   0.000000   OUTLET    
61               0.100000   0.030000   0.200000   0.250000   0.000000   PERVIOUS   100.000000
62               0.100000   0.030000   0.200000   0.250000   0.000000   PERVIOUS   100.000000
63               0.100000   0.030000   0.200000   0.250000   0.000000   OUTLET    
64               0.100000   0.030000   0.200000   0.250000   0.000000   OUTLET    
65               0.100000   0.030000   0.200000   0.250000   0.000000   PERVIOUS   100.000000
66               0.100000   0.030000   0.200000   0.250000   0.000000   PERVIOUS   100.000000
67               0.100000   0.030000   0.200000   0.250000   0.000000   PERVIOUS   100.000000
68               0.100000   0.030000   0.200000   0.250000   0.000000   PERVIOUS   100.000000
69               0.100000   0.030000   0.200000   0.250000   0.000000   PERVIOUS   100.000000
7                0.100000   0.030000   0.200000   0.250000   0.000000   OUTLET    
70               0.100000   0.030000   0.200000   0.250000   0.000000   PERVIOUS   100.000000
71               0.100000   0.030000   0.200000   0.250000   0.000000   PERVIOUS   100.000000
72               0.100000   0.030000   0.200000   0.250000   0.000000   OUTLET    
73               0.100000   0.030000   0.200000   0.250000   0.000000   OUTLET    
74               0.100000   0.030000   0.200000   0.250000   0.000000   PERVIOUS   100.000000
75               0.100000   0.030000   0.200000   0.250000   0.000000   OUTLET    
76               0.100000   0.030000   0.200000   0.250000   0.000000   OUTLET    
77               0.100000   0.030000   0.200000   0.250000   0.000000   PERVIOUS   100.000000
78               0.100000   0.030000   0.200000   0.250000   0.000000   OUTLET    
79               0.100000   0.030000   0.200000   0.250000   0.000000   OUTLET    
80               0.100000   0.030000   0.200000   0.250000   0.000000   OUTLET    
81               0.100000   0.030000   0.200000   0.250000   0.000000   OUTLET    
82               0.100000   0.030000   0.200000   0.250000   0.000000   OUTLET    
83               0.100000   0.030000   0.200000   0.250000   0.000000   PERVIOUS   100.000000
84               0.100000   0.030000   0.200000   0.250000   0.000000   PERVIOUS   100.000000
9                0.100000   0.030000   0.200000   0.250000   0.000000   PERVIOUS   100.000000

[INFILTRATION]
;;Subcatchment   MaxRate    MinRate    Decay      DryTime    MaxInfil  
;;-------------- ---------- ---------- ---------- ---------- ----------
0                6.300000   3.000000   4.140000   0.001000   0.000000  
1                6.300000   3.000000   4.140000   0.001000   0.000000  
10               6.300000   3.000000   4.140000   0.001000   0.000000  
11               6.300000   3.000000   4.140000   0.001000   0.000000  
12               6.300000   3.000000   4.140000   0.001000   0.000000  
13               6.300000   3.000000   4.140000   0.001000   0.000000  
14               6.300000   3.000000   4.140000   0.001000   0.000000  
16               6.300000   3.000000   4.140000   0.001000   0.000000  
17               6.300000   3.000000   4.140000   0.001000   0.000000  
18               6.300000   3.000000   4.140000   0.001000   0.000000  
19               6.300000   3.000000   4.140000   0.001000   0.000000  
2                6.300000   3.000000   4.140000   0.001000   0.000000  
20               6.300000   3.000000   4.140000   0.001000   0.000000  
21               6.300000   3.000000   4.140000   0.001000   0.000000  
22               6.300000   3.000000   4.140000   0.001000   0.000000  
23               6.300000   3.000000   4.140000   0.001000   0.000000  
24               6.300000   3.000000   4.140000   0.001000   0.000000  
25               6.300000   3.000000   4.140000   0.001000   0.000000  
26               6.300000   3.000000   4.140000   0.001000   0.000000  
27               6.300000   3.000000   4.140000   0.001000   0.000000  
28               6.300000   3.000000   4.140000   0.001000   0.000000  
29               6.300000   3.000000   4.140000   0.001000   0.000000  
3                6.300000   3.000000   4.140000   0.001000   0.000000  
30               6.300000   3.000000   4.140000   0.001000   0.000000  
31               6.300000   3.000000   4.140000   0.001000   0.000000  
32               6.300000   3.000000   4.140000   0.001000   0.000000  
33               6.300000   3.000000   4.140000   0.001000   0.000000  
34               6.300000   3.000000   4.140000   0.001000   0.000000  
35               6.300000   3.000000   4.140000   0.001000   0.000000  
36               6.300000   3.000000   4.140000   0.001000   0.000000  
37               6.300000   3.000000   4.140000   0.001000   0.000000  
38               6.300000   3.000000   4.140000   0.001000   0.000000  
39               6.300000   3.000000   4.140000   0.001000   0.000000  
4                6.300000   3.000000   4.140000   0.001000   0.000000  
40               6.300000   3.000000   4.140000   0.001000   0.000000  
41               6.300000   3.000000   4.140000   0.001000   0.000000  
42               6.300000   3.000000   4.140000   0.001000   0.000000  
43               6.300000   3.000000   4.140000   0.001000   0.000000  
44               6.300000   3.000000   4.140000   0.001000   0.000000  
45               6.300000   3.000000   4.140000   0.001000   0.000000  
46               6.300000   3.000000   4.140000   0.001000   0.000000  
47               6.300000   3.000000   4.140000   0.001000   0.000000  
48               6.300000   3.000000   4.140000   0.001000   0.000000  
49               6.300000   3.000000   4.140000   0.001000   0.000000  
5                6.300000   3.000000   4.140000   0.001000   0.000000  
50               6.300000   3.000000   4.140000   0.001000   0.000000  
51               6.300000   3.000000   4.140000   0.001000   0.000000  
52               6.300000   3.000000   4.140000   0.001000   0.000000  
53               6.300000   3.000000   4.140000   0.001000   0.000000  
54               6.300000   3.000000   4.140000   0.001000   0.000000  
55               6.300000   3.000000   4.140000   0.001000   0.000000  
56               6.300000   3.000000   4.140000   0.001000   0.000000  
57               6.300000   3.000000   4.140000   0.001000   0.000000  
58               6.300000   3.000000   4.140000   0.001000   0.000000  
59               6.300000   3.000000   4.140000   0.001000   0.000000  
6                6.300000   3.000000   4.140000   0.001000   0.000000  
60               6.300000   3.000000   4.140000   0.001000   0.000000  
61               6.300000   3.000000   4.140000   0.001000   0.000000  
62               6.300000   3.000000   4.140000   0.001000   0.000000  
63               6.300000   3.000000   4.140000   0.001000   0.000000  
64               6.300000   3.000000   4.140000   0.001000   0.000000  
65               6.300000   3.000000   4.140000   0.001000   0.000000  
66               6.300000   3.000000   4.140000   0.001000   0.000000  
67               6.300000   3.000000   4.140000   0.001000   0.000000  
68               6.300000   3.000000   4.140000   0.001000   0.000000  
69               6.300000   3.000000   4.140000   0.001000   0.000000  
7                6.300000   3.000000   4.140000   0.001000   0.000000  
70               6.300000   3.000000   4.140000   0.001000   0.000000  
71               6.300000   3.000000   4.140000   0.001000   0.000000  
72               6.300000   3.000000   4.140000   0.001000   0.000000  
73               6.300000   3.000000   4.140000   0.001000   0.000000  
74               6.300000   3.000000   4.140000   0.001000   0.000000  
75               6.300000   3.000000   4.140000   0.001000   0.000000  
76               6.300000   3.000000   4.140000   0.001000   0.000000  
77               6.300000   3.000000   4.140000   0.001000   0.000000  
78               6.300000   3.000000   4.140000   0.001000   0.000000  
79               6.300000   3.000000   4.140000   0.001000   0.000000  
80               6.300000   3.000000   4.140000   0.001000   0.000000  
81               6.300000   3.000000   4.140000   0.001000   0.000000  
82               6.300000   3.000000   4.140000   0.001000   0.000000  
83               6.300000   3.000000   4.140000   0.001000   0.000000  
84               6.300000   3.000000   4.140000   0.001000   0.000000  
9                6.300000   3.000000   4.140000   0.001000   0.000000  

[JUNCTIONS]
;;Name           Elevation  MaxDepth   InitDepth  SurDepth   Aponded   
;;-------------- ---------- ---------- ---------- ---------- ----------
; GLSD7-0144
JCT-01           47.300000  10.700000  0.000000   0.000000   0.000000  
; LN3-0034
JCT-10           54.830000  7.970000   0.000000   0.000000   0.000000  
; LN2-0007
JCT-100          20.000000  17.100000  0.000000   0.000000   0.000000  
; New Junction
JCT-1001         44.000000  11.000000  0.000000   0.000000   0.000000  
; LN14-0103
JCT-1002         151.000000 18.500000  0.000000   0.000000   0.000000  
; New Junction
JCT-1003         43.000000  16.000000  0.000000   0.000000   0.000000  
; LN14-0104
JCT-1004         152.000000 21.700000  0.000000   0.000000   0.000000  
; New Junction
JCT-1005         47.340000  10.660000  0.000000   0.000000   0.000000  
; LN14-0105
JCT-1006         158.080000 14.120000  0.000000   0.000000   0.000000  
; New Junction
JCT-1007         152.800000 5.000000   0.000000   0.000000   0.000000  
; LN14-0107
JCT-1008         166.830000 16.170000  0.000000   0.000000   0.000000  
; New Junction
JCT-1009         150.500000 5.000000   0.000000   0.000000   0.000000  
; LN14-0092
JCT-1010         185.060000 8.740000   0.000000   0.000000   0.000000  
; New Junction
JCT-1011         146.500000 5.000000   0.000000   0.000000   0.000000  
; LN14-0091
JCT-1012         183.200000 12.700000  0.000000   0.000000   0.000000  
; LN14-0090
JCT-1014         182.000000 12.000000  0.000000   0.000000   0.000000  
; LN14-0089
JCT-1016         170.000000 4.700000   0.000000   0.000000   0.000000  
; New Junction
JCT-1017         141.000000 5.000000   0.000000   0.000000   0.000000  
; LN14-0093
JCT-1018         175.000000 12.800000  0.000000   0.000000   0.000000  
; New Junction
JCT-1019         143.000000 10.800000  0.000000   0.000000   0.000000  
; LN2-0006
JCT-102          19.500000  12.100000  0.000000   0.000000   0.000000  
; LN14-0094
JCT-1020         179.720000 12.280000  0.000000   0.000000   0.000000  
; New Junction
JCT-1021         142.000000 10.100000  0.000000   0.000000   0.000000  
; LN14-0095
JCT-1022         182.800000 21.200000  0.000000   0.000000   0.000000  
; LN14-0108
JCT-1024         170.750000 17.350000  0.000000   0.000000   0.000000  
; LN14-0063
JCT-1026         141.850000 14.050000  0.000000   0.000000   0.000000  
; New Junction
JCT-1027         140.500000 9.500000   0.000000   0.000000   0.000000  
; LN14-0087
JCT-1028         154.800000 11.200000  0.000000   0.000000   0.000000  
; New Junction
JCT-1029         141.000000 11.500000  0.000000   0.000000   0.000000  
; LN14-0064
JCT-1030         148.850000 16.250000  0.000000   0.000000   0.000000  
; New Junction
JCT-1031         149.500000 5.000000   0.000000   0.000000   0.000000  
; LN14-0065
JCT-1032         152.000000 17.000000  0.000000   0.000000   0.000000  
; New Junction
JCT-1033         146.500000 5.000000   0.000000   0.000000   0.000000  
; LN14-0066
JCT-1034         159.150000 16.850000  0.000000   0.000000   0.000000  
; New Junction
JCT-1035         142.500000 5.000000   0.000000   0.000000   0.000000  
; LN14-0077
JCT-1036         183.850000 11.650000  0.000000   0.000000   0.000000  
; New Junction
JCT-1037         134.500000 5.000000   0.000000   0.000000   0.000000  
; LN14-0076
JCT-1038         165.000000 13.000000  0.000000   0.000000   0.000000  
; LN2-0005
JCT-104          19.000000  25.700000  0.000000   0.000000   0.000000  
; LN14-0067
JCT-1040         160.130000 17.370000  0.000000   0.000000   0.000000  
; New Junction
JCT-1041         139.500000 5.000000   0.000000   0.000000   0.000000  
; LN14-0075
JCT-1042         168.700000 11.300000  0.000000   0.000000   0.000000  
; New Junction
JCT-1043         136.400000 5.000000   0.000000   0.000000   0.000000  
; LN14-0069
JCT-1044         162.600000 17.400000  0.000000   0.000000   0.000000  
; New Junction
JCT-1045         126.000000 5.000000   0.000000   0.000000   0.000000  
; LN14-0072
JCT-1046         174.870000 12.330000  0.000000   0.000000   0.000000  
; New Junction
JCT-1047         125.500000 5.500000   0.000000   0.000000   0.000000  
; New Junction
JCT-1049         127.300000 5.000000   0.000000   0.000000   0.000000  
; LN14-0071
JCT-1050         165.660000 8.940000   0.000000   0.000000   0.000000  
; New Junction
JCT-1051         151.800000 5.000000   0.000000   0.000000   0.000000  
; LN14-0070
JCT-1052         163.700000 16.300000  0.000000   0.000000   0.000000  
; New Junction
JCT-1053         160.500000 5.000000   0.000000   0.000000   0.000000  
; LN14-0044
JCT-1054         165.300000 11.700000  0.000000   0.000000   0.000000  
; LN14-0045
JCT-1056         166.200000 9.800000   0.000000   0.000000   0.000000  
; New Junction
JCT-1057         147.000000 5.000000   0.000000   0.000000   0.000000  
; LN14-0046
JCT-1058         163.800000 11.200000  0.000000   0.000000   0.000000  
; New Junction
JCT-1059         146.000000 10.500000  0.000000   0.000000   0.000000  
; LN2-0004