[TITLE]
;;Project Title/Notes

[OPTIONS]
;;Option             Value
FLOW_UNITS           CFS
INFILTRATION         CURVE_NUMBER
FLOW_ROUTING         DYNWAVE
LINK_OFFSETS         DEPTH
MIN_SLOPE            0
ALLOW_PONDING        NO
SKIP_STEADY_STATE    NO

START_DATE           10/08/2014
START_TIME           00:00:00
REPORT_START_DATE    10/08/2014
REPORT_START_TIME    00:00:00
END_DATE             10/10/2014
END_TIME             00:00:00
SWEEP_START          01/01
SWEEP_END            12/31
DRY_DAYS             0
REPORT_STEP          00:01:00
WET_STEP             00:05:00
DRY_STEP             00:05:00
ROUTING_STEP         0:00:10 

INERTIAL_DAMPING     NONE
NORMAL_FLOW_LIMITED  BOTH
FORCE_MAIN_EQUATION  H-W
VARIABLE_STEP        0.75
LENGTHENING_STEP     0
MIN_SURFAREA         12.566
MAX_TRIALS           8
HEAD_TOLERANCE       0.001
SYS_FLOW_TOL         5
LAT_FLOW_TOL         5
MINIMUM_STEP         0.5
THREADS              1

[FILES]
;;Interfacing Files
USE HOTSTART "D:\2016PC\Summer2014\root.hsf"

[EVAPORATION]
;;Data Source    Parameters
;;-------------- ----------------
MONTHLY          0.012  0.022  0.047  0.092  0.14   0.18   0.196  0.16   0.112  0.065  0.029  0.012 
DRY_ONLY         NO

[TEMPERATURE]
;;Data Element     Values     
TIMESERIES         Temperature-Hobart
WINDSPEED MONTHLY  0.0 0.0 0.0 0.0 0.0 0.0 0.0 0.0 0.0 0.0 0.0 0.0
SNOWMELT           34 0.5 0.6 0.0 50.0 0.0
ADC IMPERVIOUS     1.0 1.0 1.0 1.0 1.0 1.0 1.0 1.0 1.0 1.0
ADC PERVIOUS       1.0 1.0 1.0 1.0 1.0 1.0 1.0 1.0 1.0 1.0

[RAINGAGES]
;;Name           Format    Interval SCF      Source    
;;-------------- --------- ------ ------ ----------
100YR_24HR_SCS_24h_Type_II_5.71in INTENSITY 0:15     1.0      TIMESERIES SCS_24h_Type_II_5.71in
1YR_24HR_SCS_24h_Type_II_2.4in INTENSITY 0:15     1.0      TIMESERIES SCS_24h_Type_II_2.4in
25YR_24HR_SCS_24h_Type_II_4.66in INTENSITY 0:15     1.0      TIMESERIES SCS_24h_Type_II_4.66in
2YR_24HR_SCS_24h_Type_II_2.78in INTENSITY 0:15     1.0      TIMESERIES SCS_24h_Type_II_2.78in

[SUBCATCHMENTS]
;;Name           Rain Gage        Outlet           Area     %Imperv  Width    %Slope   CurbLen  SnowPack        
;;-------------- ---------------- ---------------- -------- -------- -------- -------- -------- ----------------
100              25YR_24HR_SCS_24h_Type_II_4.66in Storage_3506     2.0911   87.3     1214.511 13.4129180908 0                        
101              25YR_24HR_SCS_24h_Type_II_4.66in Storage_3506     1.8972   94.9     1101.894 14.5893163681 0                        
102              25YR_24HR_SCS_24h_Type_II_4.66in STFA_STORAGE_AREA 1.6553   95.5     848.293  10.1164245605 0                        
103              25YR_24HR_SCS_24h_Type_II_4.66in STFA_STORAGE_AREA 4.678    87.7     783.745  5.71390533447 0                        
105              25YR_24HR_SCS_24h_Type_II_4.66in J88              7.6633   63.6     1059.725 7.60884380341 0                        
106              25YR_24HR_SCS_24h_Type_II_4.66in J93              3.2525   34.3     566.716  5.37159347534 0                        
107              25YR_24HR_SCS_24h_Type_II_4.66in J103             5.9552   53.4     1241.189 5.67975759506 0                        
108              25YR_24HR_SCS_24h_Type_II_4.66in J78              11.482   22.3     1136.718 6.83343982697 0                        
11               25YR_24HR_SCS_24h_Type_II_4.66in J46              2.9448   86.3     439.3    2.59949612617 0                        
110              25YR_24HR_SCS_24h_Type_II_4.66in STFA_STORAGE_AREA 2.1723   89.8     236.563  10.7823848724 0                        
111              25YR_24HR_SCS_24h_Type_II_4.66in J83              6.9854   30.2     484.529  5.6591835022 0                        
114              25YR_24HR_SCS_24h_Type_II_4.66in J89              15.064   23.8     2386.138 5.59834051132 0                        
115              25YR_24HR_SCS_24h_Type_II_4.66in J94              3.4922   37.4     670.133  6.37186861038 0                        
116              25YR_24HR_SCS_24h_Type_II_4.66in STFA_STORAGE_AREA 2.6908   92.5     781.408  10.4313459396 0                        
117              25YR_24HR_SCS_24h_Type_II_4.66in J75              4.9892   14       620.942  4.22760629654 0                        
118              25YR_24HR_SCS_24h_Type_II_4.66in J15              7.1236   45.3     1410.473 3.83414006233 0                        
119              25YR_24HR_SCS_24h_Type_II_4.66in J31              10.9456  37.6     1655.522 7.56227254868 0                        
12               25YR_24HR_SCS_24h_Type_II_4.66in J38              8.2678   75.9     225.091  10.4470720291 0                        
120              25YR_24HR_SCS_24h_Type_II_4.66in TB1              16.4304  52       2098.851 3.72267389297 0                        
121              25YR_24HR_SCS_24h_Type_II_4.66in J80              6.6503   30.8     1034.597 6.46074295044 0                        
122              25YR_24HR_SCS_24h_Type_II_4.66in J92              4.7556   82.3     1056.908 7.26472711563 0                        
123              25YR_24HR_SCS_24h_Type_II_4.66in J81              8.6686   24       1280.014 5.29772853851 0                        
124              25YR_24HR_SCS_24h_Type_II_4.66in J95              15.2781  34.6     1607.522 7.25302314758 0                        
126              25YR_24HR_SCS_24h_Type_II_4.66in J90              15.9197  12.6     912.45   5.04209661484 0                        
127              25YR_24HR_SCS_24h_Type_II_4.66in J91              10.0826  33.9     1171.195 5.78110933304 0                        
129              25YR_24HR_SCS_24h_Type_II_4.66in J82              6.1245   18.5     1159.927 9.4363193512 0                        
13               25YR_24HR_SCS_24h_Type_II_4.66in 3636             2.1497   87.1     535.091  9.61555290222 0                        
130              25YR_24HR_SCS_24h_Type_II_4.66in Outfall4         4.2461   14       1761.525 9.83546161652 0                        
133              25YR_24HR_SCS_24h_Type_II_4.66in J63              4.5991   92       572.391  9.51236534119 0                        
134              25YR_24HR_SCS_24h_Type_II_4.66in J67              10.2561  85.5     22337.786 0.38778334856 0                        
135              25YR_24HR_SCS_24h_Type_II_4.66in J79              2.9164   41.6     1032.832 4.62782430649 0                        
137              25YR_24HR_SCS_24h_Type_II_4.66in Storage_3704     1.0745   87.6     624.07   4.30789661407 0                        
14               25YR_24HR_SCS_24h_Type_II_4.66in 3636             3.4295   93.8     766.098  9.2232170105 0                        
140              25YR_24HR_SCS_24h_Type_II_4.66in Storage_3704     1.8473   90.6     574.774  9.63752365112 0                        
142              25YR_24HR_SCS_24h_Type_II_4.66in Storage_3703     1.8134   96.2     263.306  4.69245815277 0                        
143              25YR_24HR_SCS_24h_Type_II_4.66in Storage_3704     3.9514   95.1     748.361  5.7516951561 0                        
144              25YR_24HR_SCS_24h_Type_II_4.66in Storage_3704     6.0233   95.5     2522.836 9.46474838257 0                        
146              25YR_24HR_SCS_24h_Type_II_4.66in Storage_3704     6.4257   89.5     2691.38  8.31564998627 0                        
147              25YR_24HR_SCS_24h_Type_II_4.66in SP_lakearea      2.2268   95.2     881.813  9.58314228058 0                        
148              25YR_24HR_SCS_24h_Type_II_4.66in SP_lakearea      2.3434   95.6     927.986  9.50216293335 0                        
149              25YR_24HR_SCS_24h_Type_II_4.66in SP_lakearea      3.1099   95       796.866  9.18142986298 0                        
15               25YR_24HR_SCS_24h_Type_II_4.66in 3636             3.5154   92.5     987.941  9.93189716339 0                        
150              25YR_24HR_SCS_24h_Type_II_4.66in SP_lakearea      2.2116   96.5     875.794  9.87001037598 0                        
151              25YR_24HR_SCS_24h_Type_II_4.66in 159              2.083    96.4     648.111  9.49463844299 0                        
152              25YR_24HR_SCS_24h_Type_II_4.66in 159              2.126    92.7     661.49   9.17224216461 0                        
153              25YR_24HR_SCS_24h_Type_II_4.66in 159              2.1955   96.9     683.114  9.96929645538 0                        
154              25YR_24HR_SCS_24h_Type_II_4.66in 159              2.2181   97.5     690.146  10.342455864 0                        
155              25YR_24HR_SCS_24h_Type_II_4.66in 159              1.992    90.4     619.797  11.1373586655 0                        
156              25YR_24HR_SCS_24h_Type_II_4.66in 159              1.9739   95.7     614.165  10.7283649445 0                        
157              25YR_24HR_SCS_24h_Type_II_4.66in 159              2.2034   95.9     685.572  9.71238327026 0                        
158              25YR_24HR_SCS_24h_Type_II_4.66in 159              2.0269   96.4     630.655  10.006562233 0                        
159_sub          25YR_24HR_SCS_24h_Type_II_4.66in 159              2.1641   96.2     673.344  9.73817825317 0                        
16               25YR_24HR_SCS_24h_Type_II_4.66in 3636             3.5263   89       991.004  10.5606431961 0                        
160              25YR_24HR_SCS_24h_Type_II_4.66in 159              1.6462   95.6     1195.141 10.9778308868 0                        
161              25YR_24HR_SCS_24h_Type_II_4.66in Storage_3507     1.6645   95.6     1208.427 11.9015550613 0                        
162              25YR_24HR_SCS_24h_Type_II_4.66in 159              1.6902   95.8     1227.085 12.0681066513 0                        
163              25YR_24HR_SCS_24h_Type_II_4.66in 159              1.6637   94.8     1207.846 11.0412836075 0                        
164              25YR_24HR_SCS_24h_Type_II_4.66in 159              1.6977   97.3     1232.53  12.5396509171 0                        
165              25YR_24HR_SCS_24h_Type_II_4.66in 159              1.6994   96       1233.764 11.8781032562 0                        
166              25YR_24HR_SCS_24h_Type_II_4.66in Storage_3507     1.6328   96.9     1185.413 12.1951370239 0                        
167              25YR_24HR_SCS_24h_Type_II_4.66in Storage_3507     1.6696   94.2     1212.13  12.8418464661 0                        
168              25YR_24HR_SCS_24h_Type_II_4.66in Storage_3507     1.7287   95.4     1255.036 12.4454240799 0                        
169              25YR_24HR_SCS_24h_Type_II_4.66in Storage_3507     2.2841   96.4     585.267  11.905248642 0                        
17               25YR_24HR_SCS_24h_Type_II_4.66in 3636             3.3833   91.2     755.777  8.19420623779 0                        
170              25YR_24HR_SCS_24h_Type_II_4.66in Storage_3506     1.7633   95.8     1024.125 13.3772764206 0                        
171              25YR_24HR_SCS_24h_Type_II_4.66in Storage_3506     1.7014   96.3     988.173  13.6030721664 0                        
172              25YR_24HR_SCS_24h_Type_II_4.66in Storage_3506     1.7208   95.6     999.441  13.1487045288 0                        
173              25YR_24HR_SCS_24h_Type_II_4.66in Storage_3506     1.6622   96.3     965.406  13.7427558899 0                        
174              25YR_24HR_SCS_24h_Type_II_4.66in Storage_3506     1.7311   96       1005.423 13.9288263321 0                        
175              25YR_24HR_SCS_24h_Type_II_4.66in Storage_3506     0.7822   96.5     567.877  18.0719738007 0                        
176              25YR_24HR_SCS_24h_Type_II_4.66in Storage_3506     0.8727   96.9     633.58   17.4979934692 0                        
177              25YR_24HR_SCS_24h_Type_II_4.66in Storage_3506     0.7158   95.9     519.671  18.777425766 0                        
178              25YR_24HR_SCS_24h_Type_II_4.66in Storage_3506     0.7836   96.7     568.894  17.9663124084 0                        
179              25YR_24HR_SCS_24h_Type_II_4.66in Storage_3506     2.8673   97.1     543.042  10.8263711929 0                        
18               25YR_24HR_SCS_24h_Type_II_4.66in SP_lakearea      3.2789   94.9     840.17   9.90445518494 0                        
180              25YR_24HR_SCS_24h_Type_II_4.66in STFA_STORAGE_AREA 1.6419   95.3     841.425  9.84886932373 0                        
181              25YR_24HR_SCS_24h_Type_II_4.66in STFA_STORAGE_AREA 0.7574   91       299.93   10.9353933334 0                        
182              25YR_24HR_SCS_24h_Type_II_4.66in STFA_STORAGE_AREA 0.1226   85.1     213.618  12.6432924271 0                        
184              25YR_24HR_SCS_24h_Type_II_4.66in 3569             1.1916   84.9     1038.122 9.5656709671 0                        
185              25YR_24HR_SCS_24h_Type_II_4.66in 3636             3.4662   91.1     974.114  10.7303762436 0                        
187              25YR_24HR_SCS_24h_Type_II_4.66in 3636             2.1806   93.2     542.782  10.0691747665 0                        
19               25YR_24HR_SCS_24h_Type_II_4.66in SP_lakearea      1.2467   48.2     775.804  11.8206644058 0                        
190              25YR_24HR_SCS_24h_Type_II_4.66in J&L_storage      2.2309   92.6     883.436  10.1675233841 0                        
191              25YR_24HR_SCS_24h_Type_II_4.66in J&L_storage      1.4035   93.7     531.621  12.044377327 0                        
192              25YR_24HR_SCS_24h_Type_II_4.66in J&L_storage      2.1803   92.1     863.399  11.1745405197 0                        
193              25YR_24HR_SCS_24h_Type_II_4.66in J&L_storage      2.1983   92.7     870.527  9.88076877594 0                        
194              25YR_24HR_SCS_24h_Type_II_4.66in J&L_storage      2.2192   91.5     878.803  11.1177492142 0                        
195              25YR_24HR_SCS_24h_Type_II_4.66in J&L_storage      2.3518   93.2     931.313  11.2539739609 0                        
196              25YR_24HR_SCS_24h_Type_II_4.66in J&L_storage      2.3675   88.6     937.53   10       0                        
198              25YR_24HR_SCS_24h_Type_II_4.66in 3916             8.5605   82       1294.776 5.98135471344 0                        
199              25YR_24HR_SCS_24h_Type_II_4.66in 3920             7.6786   82       1161.388 5.8826842308 0                        
20               25YR_24HR_SCS_24h_Type_II_4.66in J41              2.224    90.5     569.867  2.88207650185 0                        
200              25YR_24HR_SCS_24h_Type_II_4.66in 3917             8.5689   86.8     1296.046 5.58051347733 0                        
202              25YR_24HR_SCS_24h_Type_II_4.66in J39              1.0964   67.8     530.658  7.22866296768 0                        
203              25YR_24HR_SCS_24h_Type_II_4.66in J26              1.7678   81.9     2484.044 9.74894809723 0                        
207              25YR_24HR_SCS_24h_Type_II_4.66in J65              29.6823  69.8     25859.22 1.82696211338 0                        
21               25YR_24HR_SCS_24h_Type_II_4.66in J42              1.8639   86       477.597  3.37537884712 0                        
210              25YR_24HR_SCS_24h_Type_II_4.66in STFA_STORAGE_AREA 2.6147   93.9     759.309  9.05464553833 0                        
211              25YR_24HR_SCS_24h_Type_II_4.66in STFA_STORAGE_AREA 1.4983   92.3     652.659  10.9914102554 0                        
212              25YR_24HR_SCS_24h_Type_II_4.66in J57              12.0301  82.4     10480.623 7.52910041809 0                        
22               25YR_24HR_SCS_24h_Type_II_4.66in SP_lakearea      4.205    89.3     581.491  10.4478130341 0                        
23               25YR_24HR_SCS_24h_Type_II_4.66in SP_lakearea      9.869    94.7     2149.468 7.7002363205 0                        
24               25YR_24HR_SCS_24h_Type_II_4.66in 159              1.7847   95.9     555.297  9.14486026764 0                        
25               25YR_24HR_SCS_24h_Type_II_4.66in 159              2.1308   91.4     662.983  11.0391044617 0                        
26               25YR_24HR_SCS_24h_Type_II_4.66in 159              2.3016   97       716.126  8.81765937805 0                        
27               25YR_24HR_SCS_24h_Type_II_4.66in J44              3.7147   87.8     539.374  2.55352115631 0                        
28               25YR_24HR_SCS_24h_Type_II_4.66in J47              2.9948   74.3     483.161  3.57850146294 0                        
29               25YR_24HR_SCS_24h_Type_II_4.66in 159              2.2691   97.3     706.014  11.7721986771 0                        
3                25YR_24HR_SCS_24h_Type_II_4.66in Storage_3703     6.9756   91.8     2921.703 7.35937595367 0                        
31               25YR_24HR_SCS_24h_Type_II_4.66in 3636             4.3233   92.5     1076.131 7.72762966156 0                        
34               25YR_24HR_SCS_24h_Type_II_4.66in J49              5.9517   40.1     785.624  4.32912921906 0                        
37               25YR_24HR_SCS_24h_Type_II_4.66in 3636             3.796    90       847.968  7.980427742 0                        
38               25YR_24HR_SCS_24h_Type_II_4.66in J50              3.6376   77.2     609.438  6.866979599 0                        
39               25YR_24HR_SCS_24h_Type_II_4.66in J51              12.558   81.8     1215.614 6.15111637115 0                        
4                25YR_24HR_SCS_24h_Type_II_4.66in Storage_3703     2.2146   94.7     803.9    8.80591583252 0                        
40               25YR_24HR_SCS_24h_Type_II_4.66in J55              8.377    63.5     486.536  5.20719003677 0                        
41               25YR_24HR_SCS_24h_Type_II_4.66in J52              13.8295  24.3     803.217  4.03077793121 0                        
42               25YR_24HR_SCS_24h_Type_II_4.66in SP_lakearea      3.3379   94.6     855.288  9.23478126526 0                        
43               25YR_24HR_SCS_24h_Type_II_4.66in J48              3.9498   41.7     637.234  1.57248020172 0                        
44               25YR_24HR_SCS_24h_Type_II_4.66in J37              3.3615   76.4     989.371  10.944144249 0                        
45               25YR_24HR_SCS_24h_Type_II_4.66in J43              1.9423   90.8     769.151  3.57357263565 0                        
46               25YR_24HR_SCS_24h_Type_II_4.66in SP_lakearea      2.3193   88.9     918.443  9.91090488434 0                        
47               25YR_24HR_SCS_24h_Type_II_4.66in J53              11.4643  29.1     665.847  4.22260475159 0                        
48               25YR_24HR_SCS_24h_Type_II_4.66in J56              6.7044   82.8     1497.66  6.2411441803 0                        
49               25YR_24HR_SCS_24h_Type_II_4.66in SP_lakearea      3.2662   95       836.916  8.20076179504 0                        
5                25YR_24HR_SCS_24h_Type_II_4.66in Storage_3704     3.6267   94.3     718.087  8.72753810883 0                        
50               25YR_24HR_SCS_24h_Type_II_4.66in J54              8.0984   46.7     470.355  4.62791728973 0                        
51               25YR_24HR_SCS_24h_Type_II_4.66in J36              6.379    72.7     631.521  8.27565288544 0                        
52               25YR_24HR_SCS_24h_Type_II_4.66in SP_lakearea      5.4767   50       1136.024 9.03130626678 0                        
53               25YR_24HR_SCS_24h_Type_II_4.66in J45              3.7076   48.9     708.347  3.33124256134 0                        
54               25YR_24HR_SCS_24h_Type_II_4.66in SP_lakearea      3.9813   92.9     462.468  21.9410514832 0                        
55               25YR_24HR_SCS_24h_Type_II_4.66in J60              37.1782  44.7     3837.636 6.23079633713 0                        
57               25YR_24HR_SCS_24h_Type_II_4.66in 159              1.6622   96.7     1206.757 12.6850681305 0                        
58               25YR_24HR_SCS_24h_Type_II_4.66in J58              5.677    96       4496.184 9.98216438293 0                        
59               25YR_24HR_SCS_24h_Type_II_4.66in J7               4.4024   96.4     4261.523 13.4855823517 0                        
6                25YR_24HR_SCS_24h_Type_II_4.66in J40              2.0297   78.9     294.712  6.92436981201 0                        
60               25YR_24HR_SCS_24h_Type_II_4.66in J5               2.634    95.9     573.685  11.783703804 0                        
61               25YR_24HR_SCS_24h_Type_II_4.66in J&L_storage      4.4371   88       773.12   8.21406078339 0                        
62               25YR_24HR_SCS_24h_Type_II_4.66in J&L_storage      1.3683   95.8     518.288  11.7380657196 0                        
63               25YR_24HR_SCS_24h_Type_II_4.66in J&L_storage      4.3306   91.3     754.564  8.53998279572 0                        
64               25YR_24HR_SCS_24h_Type_II_4.66in SP_lakearea      5.6581   94.8     912.84   9.07447147369 0                        
66               25YR_24HR_SCS_24h_Type_II_4.66in J34              5.0793   78.4     514.545  6.62100839615 0                        
67               25YR_24HR_SCS_24h_Type_II_4.66in J8               3.3259   70       3219.471 13.8575706482 0                        
68               25YR_24HR_SCS_24h_Type_II_4.66in Storage_3507     1.7367   95.4     1260.844 12.4855232239 0                        
69               25YR_24HR_SCS_24h_Type_II_4.66in J35              7.3832   77.8     945.918  7.53325605392 0                        
7                25YR_24HR_SCS_24h_Type_II_4.66in Storage_3704     2.1388   86.3     665.472  9.90557479858 0                        
70               25YR_24HR_SCS_24h_Type_II_4.66in 159              1.6693   95.9     1211.912 11.1026191711 0                        
71               25YR_24HR_SCS_24h_Type_II_4.66in 3918             8.089    85.2     1223.461 6.19054841995 0                        
72               25YR_24HR_SCS_24h_Type_II_4.66in J&L_storage      2.2171   93.6     877.972  10.4221534729 0                        
73               25YR_24HR_SCS_24h_Type_II_4.66in J&L_storage      11.7963  59.9     934.267  5.04025745392 0                        
74               25YR_24HR_SCS_24h_Type_II_4.66in J&L_storage      2.2072   92.1     874.051  9.87135887146 0                        
75               25YR_24HR_SCS_24h_Type_II_4.66in J&L_storage      1.8283   95.1     692.528  10.4007997513 0                        
76               25YR_24HR_SCS_24h_Type_II_4.66in J24              4.2447   79.8     3081.652 9.63750362396 0                        
77               25YR_24HR_SCS_24h_Type_II_4.66in J25              11.4488  61.7     1133.431 6.29794549942 0                        
78               25YR_24HR_SCS_24h_Type_II_4.66in J&L_storage      2.2294   91.5     882.842  10.6469154358 0                        
79               25YR_24HR_SCS_24h_Type_II_4.66in J96              8.8613   84.4     472.458  10.6873817444 0                        
80               25YR_24HR_SCS_24h_Type_II_4.66in Storage_3507     2.6883   96.1     532.283  10.2151107788 0                        
81               25YR_24HR_SCS_24h_Type_II_4.66in J73              18.3073  28.1     1527.713 2.7535033226 0                        
82               25YR_24HR_SCS_24h_Type_II_4.66in J76              2.026    47.2     387.073  5.49889564514 0                        
83               25YR_24HR_SCS_24h_Type_II_4.66in J&L_storage      2.1917   87.1     867.913  9.9069814682 0                        
84               25YR_24HR_SCS_24h_Type_II_4.66in Storage_3507     1.6533   96.1     1200.296 12.0203466415 0                        
86               25YR_24HR_SCS_24h_Type_II_4.66in J97              6.0578   86.7     698.089  12.8092737198 0                        
87               25YR_24HR_SCS_24h_Type_II_4.66in J21              5.1439   74       1318.049 3.1963019371 0                        
89               25YR_24HR_SCS_24h_Type_II_4.66in 3919             11.2254  85.8     1697.842 5.27211093903 0                        
9                25YR_24HR_SCS_24h_Type_II_4.66in Storage_3704     2.7234   95.1     551.774  5.72542524338 0                        
90               25YR_24HR_SCS_24h_Type_II_4.66in 3915             8.0864   83.1     1223.068 5.72721529007 0                        
91               25YR_24HR_SCS_24h_Type_II_4.66in Storage_3506     1.7752   94.9     1031.036 14.9967460632 0                        
92               25YR_24HR_SCS_24h_Type_II_4.66in J11              6.0705   51.3     911.831  5.88234710693 0                        
93               25YR_24HR_SCS_24h_Type_II_4.66in J85              19.2839  52.1     1184.777 5.27253246307 0                        
95               25YR_24HR_SCS_24h_Type_II_4.66in J87              24.8239  31.7     1175.358 5.50018692017 0                        
96               25YR_24HR_SCS_24h_Type_II_4.66in Storage_3506     1.9636   86.8     1140.459 13.2945079803 0                        
97               25YR_24HR_SCS_24h_Type_II_4.66in J16              4.5654   38.5     1325.792 5.58324432373 0                        
98               25YR_24HR_SCS_24h_Type_II_4.66in Storage_3506     1.7109   93.9     993.691  13.9788560867 0                        
99               25YR_24HR_SCS_24h_Type_II_4.66in J19              37.2868  73.5     1992.899 4.57059621811 0                        
ITF_parking      25YR_24HR_SCS_24h_Type_II_4.66in Pump-13          7.1316   55       258      1.2      0                        
S1               25YR_24HR_SCS_24h_Type_II_4.66in J72              15.9217  77.8     8256.539 1.60223294 0                        
S2               25YR_24HR_SCS_24h_Type_II_4.66in J64              2.4021   90       247.002  9.69235566 0                        
Sub10            25YR_24HR_SCS_24h_Type_II_4.66in 3636             2.1876   95.1     544.525  7.45205307007 0                        
sub186           25YR_24HR_SCS_24h_Type_II_4.66in 3636             2.1855   90.8     544.002  8.37480354309 0                        
sub188           25YR_24HR_SCS_24h_Type_II_4.66in 3636             2.1553   90.8     536.485  7.89403629303 0                        
sub189           25YR_24HR_SCS_24h_Type_II_4.66in 3636             2.1631   93.9     538.426  9.3965177536 0                        
sub201           25YR_24HR_SCS_24h_Type_II_4.66in 3636             2.1323   89.7     530.76   7.75273227692 0                        
sub204           25YR_24HR_SCS_24h_Type_II_4.66in J&L_storage      2.3251   92.4     920.74   10.3022499084 0                        
sub208           25YR_24HR_SCS_24h_Type_II_4.66in 3636             2.1895   83.3     544.998  8.63587474823 0                        
sub30            25YR_24HR_SCS_24h_Type_II_4.66in 3636             2.0336   94       506.192  6.59039068222 0                        
sub32            25YR_24HR_SCS_24h_Type_II_4.66in 3636             2.1951   77.9     546.392  7.48787546158 0                        
sub33            25YR_24HR_SCS_24h_Type_II_4.66in 3636             2.2022   93.8     548.159  8.3190536499 0                        
sub35            25YR_24HR_SCS_24h_Type_II_4.66in 3636             3.4662   83.3     774.296  7.58497714996 0                        
sub36            25YR_24HR_SCS_24h_Type_II_4.66in 159              2.1536   85.6     670.077  7.00598573685 0                        
sub8             25YR_24HR_SCS_24h_Type_II_4.66in 3636             2.2356   93.5     556.473  9.63132858276 0                        

[SUBAREAS]
;;Subcatchment   N-Imperv   N-Perv     S-Imperv   S-Perv     PctZero    RouteTo    PctRouted 
;;-------------- ---------- ---------- ---------- ---------- ---------- ---------- ----------
100              0.015      0.25       0.1        0.15       25         OUTLET    
101              0.015      0.25       0.1        0.15       25         OUTLET    
102              0.015      0.25       0.1        0.15       25         OUTLET    
103              0.015      0.25       0.1        0.15       25         OUTLET    
105              0.015      0.25       0.1        0.15       25         OUTLET    
106              0.015      0.25       0.1        0.15       25         OUTLET    
107              0.015      0.25       0.1        0.15       25         OUTLET    
108              0.015      0.25       0.1        0.15       25         OUTLET    
11               0.015      0.25       0.1        0.15       25         OUTLET    
110              0.015      0.25       0.1        0.15       25         OUTLET    
111              0.015      0.25       0.1        0.15       25         OUTLET    
114              0.015      0.25       0.1        0.15       25         OUTLET    
115              0.015      0.25       0.1        0.15       25         OUTLET    
116              0.015      0.25       0.1        0.15       25         OUTLET    
117              0.015      0.25       0.1        0.15       25         OUTLET    
118              0.015      0.25       0.1        0.15       25         OUTLET    
119              0.015      0.25       0.1        0.15       25         OUTLET    
12               0.015      0.25       0.1        0.15       25         OUTLET    
120              0.015      0.25       0.1        0.15       25         OUTLET    
121              0.015      0.25       0.1        0.15       25         OUTLET    
122              0.015      0.25       0.1        0.15       25         OUTLET    
123              0.015      0.25       0.1        0.15       25         OUTLET    
124              0.015      0.25       0.1        0.15       25         OUTLET    
126              0.015      0.25       0.1        0.15       25         OUTLET    
127              0.015      0.25       0.1        0.15       25         OUTLET    