[TITLE]
;;Project Title/Notes
                                       Muddy Creek
                                       Resize (do not delete this KEYWORD)

[OPTIONS]
;;Option             Value
FLOW_UNITS           CFS
INFILTRATION         HORTON
FLOW_ROUTING         DYNWAVE
LINK_OFFSETS         DEPTH
MIN_SLOPE            0
ALLOW_PONDING        YES
SKIP_STEADY_STATE    NO

START_DATE           01/01/1970
START_TIME           00:00:00
REPORT_START_DATE    01/01/1970
REPORT_START_TIME    00:00:00
END_DATE             02/01/1970
END_TIME             00:00:00
SWEEP_START          01/01
SWEEP_END            12/31
DRY_DAYS             0
REPORT_STEP          01:00:00
WET_STEP             00:15:00
DRY_STEP             00:15:00
ROUTING_STEP         0:01:00 

INERTIAL_DAMPING     NONE
NORMAL_FLOW_LIMITED  SLOPE
FORCE_MAIN_EQUATION  H-W
VARIABLE_STEP        0.75
LENGTHENING_STEP     90
MIN_SURFAREA         12.56
MAX_TRIALS           0
HEAD_TOLERANCE       0
SYS_FLOW_TOL         5
LAT_FLOW_TOL         5
MINIMUM_STEP         0.5
THREADS              1

[EVAPORATION]
;;Data Source    Parameters
;;-------------- ----------------
CONSTANT         0.0
DRY_ONLY         NO

[RAINGAGES]
;;Name           Format    Interval SCF      Source    
;;-------------- --------- ------ ------ ----------
GAGE1            VOLUME    1.0      1.0      TIMESERIES RainSeries1     

[SUBCATCHMENTS]
;;Name           Rain Gage        Outlet           Area     %Imperv  Width    %Slope   CurbLen  SnowPack        
;;-------------- ---------------- ---------------- -------- -------- -------- -------- -------- ----------------
GMMC15CC0001     GAGE1            20507006         8.87     10.5     198.93   2.36     0                        
GMMC15CC0002     GAGE1            20507013         6.29     10.5     133.52   3.37     0                        
GMMC15CC0003     GAGE1            20510006         6.36     16.29    158.51   4.25     0                        
GMMC15CC0004     GAGE1            20510008         8.8      12.025   159.04   3.04     0                        
GMMC15CC0005     GAGE1            20510005         1.7      14.435   72.4     1.62     0                        
GMMC15CC0006     GAGE1            20510007         1.45     12.96    50.24    1.52     0                        
GMMC15CC0007     GAGE1            20507005         2.23     10.5     104.12   0.93     0                        
GMMC15CC0008     GAGE1            20507004         3.96     10.5     117.58   1.01     0                        
GMMC15CC0009     GAGE1            20507008         1.17     10.5     39.98    7.92     0                        
GMMC15CC0011     GAGE1            20510013         6.26     10.5     158.99   3.23     0                        
GMMC15CC0012     GAGE1            20507009         2.56     10.5     58.05    3.77     0                        
GMMC15CC0013     GAGE1            20510010         2.67     10.5     55.95    2.0      0                        
GMMC15CC0014     GAGE1            20507017         7.03     15.705   178.71   3.14     0                        
GMMC15CC0015     GAGE1            20507010         2.33     10.5     52.56    1.93     0                        
GMMC15CC0016     GAGE1            20507012         3.02     10.5     51.82    5.17     0                        
GMMC15CC0017     GAGE1            20510016         5.01     13.55    86.59    1.16     0                        
GMMC15CC0018     GAGE1            20515014         9.27     10.5     170.47   2.74     0                        
GMMC15CC0019     GAGE1            20509014         5.55     10.5     95.66    2.42     0                        
GMMC15CC0020     GAGE1            20516001         3.18     12.765   314.3    0.95     0                        
GMMC15CC0021     GAGE1            20516002         4.78     11.635   158.06   1.68     0                        
GMMC15CC0022     GAGE1            20516004         2.39     12.055   53.1     0.64     0                        
GMMC15CC0023     GAGE1            20516007         1.07     10.5     26.37    3.67     0                        
GMMC15CC0024     GAGE1            20509009         5.04     19.175   82.65    1.49     0                        
GMMC15CC0025     GAGE1            20509010         5.56     11.68    87.54    3.52     0                        
GMMC15CC0026     GAGE1            20509012         8.35     11.295   128.22   2.98     0                        
GMMC15CC0027     GAGE1            20509008         10.87    12.345   115.57   3.23     0                        
GMMC15CC0028     GAGE1            20516020         13.03    11.515   156.58   5.9      0                        
GMMC15CC0029     GAGE1            20509013         2.56     12.96    34.67    1.39     0                        
GMMC15CC0030     GAGE1            19413015         2.63     10.5     74.81    0.73     0                        
GMMC15CC0031     GAGE1            19413013         9.99     12.58    142.71   1.81     0                        
GMMC15CC0032     GAGE1            19413012         5.51     10.5     164.35   1.18     0                        
GMMC15CC0033     GAGE1            19413006         3.74     11.68    103.4    6.08     0                        
GMMC15CC0034     GAGE1            19413005         1.72     12.96    45.22    3.0      0                        
GMMC15CC0035     GAGE1            19413021         10.51    12.465   127.61   8.42     0                        
GMMC15CC0036     GAGE1            19413008         7.03     11.515   106.82   1.93     0                        
GMMC15CC0037     GAGE1            19414014         18.14    15.77    211.57   3.48     0                        
GMMC15CC0038     GAGE1            20510021         11.63    13.39    128.5    2.87     0                        
GMMC15CC0039     GAGE1            19414009         23.88    7.94     125.0    0.5      0                        
GMMC15CC0040     GAGE1            19302011         39.16    15.22    559.06   3.05     0                        
GMMC15CC0041     GAGE1            19413022         8.42     14.925   79.75    5.36     0                        
GMMC15CC0042     GAGE1            19302011         121.16   11.785   546.86   2.07     0                        
GMMC15CC0043     GAGE1            19414009         45.09    8.45     130.0    0.6      0                        
GMMC15CC0044     GAGE1            20509019         40.39    15.16    466.84   1.0      0                        
GMMC15CC0045     GAGE1            19414009         78.89    12.16    456.82   2.36     0                        
GMMC15CC0046     GAGE1            19412008         34.82    11.86    457.94   3.38     0                        
GMMC16RC0001     GAGE1            20615005         3.67     21.0     81.83    0.83     0                        
GMMC16RC0002     GAGE1            20610008         5.35     21.0     92.55    1.03     0                        
GMMC16RC0003     GAGE1            20608009         43.91    34.84    104.94   2.16     0                        
GMMC16RC0005     GAGE1            20602015         35.56    22.59    481.11   4.41     0                        
GMMC16RC0006     GAGE1            19305018         8.21     22.84    169.72   2.36     0                        
GMMC16RC0007     GAGE1            20702001         3.81     90.0     77.91    1.08     0                        
GMMC16RC0008     GAGE1            20614030         12.11    90.0     198.48   2.73     0                        
GMMC16RC0009     GAGE1            20614031         5.44     22.0     79.34    1.02     0                        
GMMC16RC0010     GAGE1            20610006         7.11     22.0     118.6    3.69     0                        
GMMC16RC0011     GAGE1            20614036         1.91     40.0     91.64    5.44     0                        
GMMC16RC0012     GAGE1            20614033         0.77     80.0     31.2     2.3      0                        
GMMC16RC0013     GAGE1            20614039         2.16     50.0     70.36    1.74     0                        
GMMC16RC0014     GAGE1            20614041         2.94     25.0     50.17    1.22     0                        
GMMC16RC0015     GAGE1            20612005         21.41    50.0     142.94   1.92     0                        
GMMC16RC0016     GAGE1            20606011         5.62     30.0     95.75    3.87     0                        
GMMC16RC0017     GAGE1            20606012         1.73     30.0     96.51    0.31     0                        
GMMC16RC0018     GAGE1            20606013         1.36     30.0     88.42    0.35     0                        
GMMC16RC0019     GAGE1            20606014         1.05     30.0     49.63    0.71     0                        
GMMC16RC0020     GAGE1            20602005         0.96     22.0     25.8     1.14     0                        
GMMC16RC0021     GAGE1            20602004         0.75     21.0     15.22    0.37     0                        
GMMC16RC0022     GAGE1            19304008         8.21     28.38    154.79   2.3      0                        
GMMC16RC0023     GAGE1            20608023         24.78    23.51    248.48   2.99     0                        
GMMC16RC0024     GAGE1            20611031         2.35     35.0     57.5     8.57     0                        
GMMC16RC0025     GAGE1            20611033         1.73     30.0     29.39    2.13     0                        
GMMC16RC0026     GAGE1            20611047         5.66     50.0     81.41    2.7      0                        
GMMC16RC0027     GAGE1            20610018         0.22     50.0     3.39     1.48     0                        
GMMC16RC0028     GAGE1            20610017         0.51     20.0     8.09     1.51     0                        
GMMC16RC0029     GAGE1            20610016         0.78     20.0     11.85    5.06     0                        
GMMC16RC0030     GAGE1            20610015         0.94     35.0     14.59    8.0      0                        
GMMC16RC0031     GAGE1            20610014         0.81     25.0     13.98    2.27     0                        
GMMC16RC0032     GAGE1            20610023         1.15     30.0     19.53    6.85     0                        
GMMC16RC0033     GAGE1            20610019         6.08     25.0     61.33    4.43     0                        
GMMC16RC0034     GAGE1            20611039         1.15     25.0     23.64    2.48     0                        
GMMC16RC0035     GAGE1            20611040         0.62     22.0     14.18    2.95     0                        
GMMC16RC0036     GAGE1            20611038         0.92     25.0     17.23    2.75     0                        
GMMC16RC0037     GAGE1            20611046         0.55     1.0      12.82    2.64     0                        
GMMC16RC0038     GAGE1            20606016         1.33     22.0     38.12    2.56     0                        
GMMC16RC0039     GAGE1            20606017         0.65     25.0     15.66    0.24     0                        
GMMC16RC0040     GAGE1            20607002         0.92     75.0     21.53    0.75     0                        
GMMC16RC0041     GAGE1            20607009         3.49     38.77    60.44    0.46     0                        
GMMC16RC0042     GAGE1            20607005         20.19    44.48    236.02   2.9      0                        
GMMC16RC0043     GAGE1            20602007         0.89     35.75    35.0     1.47     0                        
GMMC16RC0044     GAGE1            20602015         1.27     21.0     32.41    2.07     0                        
GMMC16RC0045     GAGE1            20607010         2.48     22.59    47.34    0.46     0                        
GMMC16RC0046     GAGE1            20602013         6.87     80.0     187.7    1.77     0                        
GMMC16RC0047     GAGE1            20607006         11.1     36.36    162.4    0.32     0                        
GMMC16RC0048     GAGE1            20608025         5.01     21.82    101.48   5.72     0                        
GMMC16RC0049     GAGE1            20601001         13.6     24.3     282.16   5.36     0                        
GMMC16RC0050     GAGE1            20601002         5.04     21.0     87.05    4.7      0                        
GMMC16RC0051     GAGE1            19304004         2.34     50.5     34.0     3.0      0                        
GMMC16RC0052     GAGE1            19304004         1.8      27.56    56.78    7.46     0                        
GMMC16RC0053     GAGE1            20610010         11.44    39.0     186.36   0.88     0                        
GMMC16RC0054     GAGE1            20610008         3.16     22.0     46.37    4.52     0                        
GMMC16RC0055     GAGE1            20608012         27.62    35.09    437.83   5.26     0                        
GMMC16RC0056     GAGE1            20608024         5.88     21.9     101.08   8.33     0                        
GMMC16RC0057     GAGE1            20601024         8.32     22.8     207.39   8.1      0                        
GMMC16RC0058     GAGE1            20606020         13.66    22.0     244.62   4.27     0                        
GMMC17CC0001     GAGE1            20603013         17.45    11.825   187.9    4.2      0                        
GMMC17CC0002     GAGE1            23902023         1.55     25.25    108.97   6.2      0                        
GMMC17CC0003     GAGE1            23902020         4.47     40.0     126.93   4.0      0                        
GMMC17CC0004     GAGE1            23902018         8.08     40.0     176.29   1.5      0                        
GMMC17CC0005     GAGE1            23902016         15.74    26.56    353.76   2.3      0                        
GMMC17CC0006     GAGE1            23902025         11.19    15.605   138.06   3.7      0                        
GMMC17CC0007     GAGE1            23901026         4.3      16.11    80.74    2.5      0                        
GMMC17CC0008     GAGE1            23901007         5.0      17.71    55.39    0.7      0                        
GMMC17CC0009     GAGE1            23901030         3.68     12.63    51.67    0.8      0                        
GMMC17CC0010     GAGE1            24015022         12.05    25.115   192.04   2.4      0                        
GMMC17CC0011     GAGE1            24015019         1.56     16.065   41.66    0.7      0                        
GMMC17CC0012     GAGE1            24015018         2.18     18.585   49.64    0.5      0                        
GMMC17CC0013     GAGE1            24015013         1.97     17.0     46.61    2.1      0                        
GMMC17CC0014     GAGE1            24015016         2.58     14.795   44.27    4.3      0                        
GMMC17CC0015     GAGE1            24015012         2.25     15.525   43.74    3.7      0                        
GMMC17CC0016     GAGE1            24015011         2.53     15.0     41.37    0.8      0                        
GMMC17CC0017     GAGE1            24016014         4.02     30.46    42.47    6.2      0                        
GMMC17CC0018     GAGE1            20603009         12.2     39.165   92.71    1.4      0                        
GMMC17CC0019     GAGE1            24016016         5.18     26.38    68.25    2.0      0                        
GMMC17CC0020     GAGE1            20604014         5.18     19.665   118.81   3.2      0                        
GMMC17CC0021     GAGE1            20604003         16.03    15.43    257.19   2.6      0                        
GMMC17CC0022     GAGE1            20606038         3.67     10.5     109.69   1.3      0                        
GMMC17CC0023     GAGE1            20603002         2.5      13.65    82.88    0.5      0                        
GMMC17CC0024     GAGE1            20603003         3.17     11.725   162.62   0.9      0                        
GMMC17CC0025     GAGE1            20603004         1.9      11.785   61.5     4.3      0                        
GMMC17CC0026     GAGE1            24016035         4.6      42.5     49.6     1.1      0                        
GMMC17CC0027     GAGE1            24009023         4.6      27.73    138.06   2.8      0                        
GMMC17CC0028     GAGE1            24009019         40.17    30.96    366.88   1.7      0                        
GMMC17CC0029     GAGE1            24009033         15.53    18.36    237.3    3.4      0                        
GMMC17CC0030     GAGE1            24016001         33.09    17.055   358.09   3.1      0                        
GMMC17CC0031     GAGE1            20512010         13.04    15.05    234.87   3.0      0                        
GMMC17CC0032     GAGE1            20512025         34.39    22.47    277.58   2.8      0                        
GMMC17CC0033     GAGE1            20513001         23.25    40.44    195.06   0.9      0                        
GMMC17CC0034     GAGE1            24016034         7.82     31.15    81.79    8.5      0                        
GMMC17CC0035     GAGE1            23901013         6.78     16.605   64.44    3.4      0                        
GMMC17CC0036     GAGE1            23902026         3.75     18.74    49.34    2.3      0                        
GMMC17CC0037     GAGE1            23902028         6.62     13.255   139.14   0.6      0                        
GMMC17CC0038     GAGE1            23901034         20.6     15.52    330.83   2.8      0                        
GMMC17CC0039     GAGE1            20603008         6.79     15.6     135.71   2.1      0                        
GMMC17CC0040     GAGE1            20602012         7.36     16.4     148.04   1.4      0                        
GMMC17CC0041     GAGE1            20603010         26.24    24.595   278.59   0.8      0                        
GMMC17CC0042     GAGE1            20513018         13.94    41.46    159.25   3.2      0                        
GMMC17CC0043     GAGE1            24016022         19.88    37.325   240.65   1.9      0                        
GMMC18CC0001     GAGE1            23911018         2.59     12.76    126.99   1.3      0                        
GMMC18CC0002     GAGE1            23911017         6.55     14.83    210.22   1.1      0                        
GMMC18CC0004     GAGE1            23911015         9.2      11.75    228.66   3.8      0                        
GMMC18CC0005     GAGE1            23911006         9.36     14.925   180.54   3.7      0                        
GMMC18CC0006     GAGE1            23911010         7.55     14.405   139.11   3.0      0                        
GMMC18CC0007     GAGE1            23911002         4.0      21.84    88.02    5.4      0                        
GMMC18CC0008     GAGE1            23911003         3.16     21.65    169.15   1.6      0                        
GMMC18CC0009     GAGE1            23911013         1.02     22.855   73.5     1.4      0                        
GMMC18CC0010     GAGE1            23911012         2.29     14.51    69.78    4.3      0                        
GMMC18CC0011     GAGE1            23910030         2.96     16.935   83.94    5.6      0                        
GMMC18CC0012     GAGE1            23910019         6.41     15.55    151.58   4.2      0                        
GMMC18CC0013     GAGE1            23910020         1.39     17.715   230.81   2.3      0                        
GMMC18CC0014     GAGE1            23910029         0.75     24.615   60.05    2.3      0                        
GMMC18CC0015     GAGE1            23910038         1.56     14.52    122.85   1.3      0                        
GMMC18CC0016     GAGE1            23910037         5.7      13.205   165.58   5.0      0                        
GMMC18CC0017     GAGE1            23910026         3.86     16.655   79.13    2.1      0                        
GMMC18CC0018     GAGE1            23910003         17.03    22.665   187.72   3.1      0                        
GMMC18CC0019     GAGE1            23910004         3.01     19.945   109.53   7.2      0                        
GMMC18CC0020     GAGE1            23910004         0.62     14.095   199.21   4.0      0                        
GMMC18CC0021     GAGE1            23910009         2.15     26.24    155.64   8.1      0                        
GMMC18CC0022     GAGE1            23910005         2.12     16.775   88.66    4.5      0                        
GMMC18CC0023     GAGE1            23910006         7.49     18.275   172.01   1.9      0                        
GMMC18CC0024     GAGE1            23915016         5.53     13.555   118.04   2.6      0                        
GMMC18CC0025     GAGE1            23915011         4.78     16.16    186.46   4.6      0                        
GMMC18CC0026     GAGE1            23915015         4.4      19.09    173.3    1.9      0                        
GMMC18CC0027     GAGE1            23916033         16.26    16.555   141.79   2.9      0                        
GMMC18CC0028     GAGE1            23910010         1.26     24.59    72.01    0.0      0                        
GMMC18CC0029     GAGE1            23909021         3.34     26.135   180.49   0.7      0                        
GMMC18CC0030     GAGE1            23909020         5.23     16.8     116.68   3.7      0                        
GMMC18CC0031     GAGE1            23909011         17.4     18.115   191.88   3.7      0                        
GMMC18CC0032     GAGE1            20612024         7.97     14.33    203.22   2.8      0                        
GMMC18CC0033     GAGE1            23909004         2.36     23.335   107.65   0.0      0                        
GMMC18CC0034     GAGE1            23909005         0.59     26.42    81.4     0.5      0                        
GMMC18CC0035     GAGE1            20612047         2.21     23.655   80.05    0.5      0                        
GMMC18CC0036     GAGE1            20612040         13.74    27.91    216.11   5.6      0                        
GMMC18CC0037     GAGE1            20612030         2.48     16.325   126.35   2.7      0                        
GMMC18CC0039     GAGE1            23916031         4.18     20.5     380.44   2.9      0                        
GMMC18CC0040     GAGE1            20705005         14.39    14.475   230.8    1.8      0                        
GMMC18CC0041     GAGE1            20706014         1.57     10.575   83.3     2.0      0                        
GMMC18CC0042     GAGE1            20706016         2.96     13.625   154.84   2.7      0                        
GMMC18CC0044     GAGE1            20705004         17.49    29.52    179.95   1.6      0                        
GMMC18CC0045     GAGE1            20705003         0.37     10.5     22.2     2.4      0                        
GMMC18CC0046     GAGE1            20704009         3.59     12.215   135.5    4.5      0                        
GMMC18CC0047     GAGE1            20703009         3.68     12.52    107.43   2.5      0                        
GMMC18CC0048     GAGE1            20703013         7.0      12.015   157.82   3.7      0                        
GMMC18CC0049     GAGE1            20613002         7.93     24.86    101.15   3.0      0                        
GMMC18CC0050     GAGE1            20703003         7.32     15.13    268.93   1.7      0                        
GMMC18CC0051     GAGE1            20703006         2.57     11.14    191.23   1.4      0                        
GMMC18CC0052     GAGE1            20703008         4.07     18.24    116.47   3.9      0                        
GMMC18CC0053     GAGE1            20614022         11.2     32.66    187.54   3.7      0                        
GMMC18CC0054     GAGE1            20612015         8.14     22.87    135.84   2.6      0                        
GMMC18CC0055     GAGE1            20614021         5.0      14.68    151.05   4.2      0                        
GMMC18CC0056     GAGE1            20605060         5.1      32.48    89.48    2.9      0                        
GMMC18CC0057     GAGE1            20605065         1.24     10.535   59.59    3.1      0                        
GMMC18CC0058     GAGE1            20605072         1.39     10.55    101.12   8.0      0                        
GMMC18CC0059     GAGE1            20612038         2.23     15.27    397.12   8.1      0                        
GMMC18CC0060     GAGE1            20612044         2.4      19.695   130.68   0.2      0                        
GMMC18CC0061     GAGE1            20612043         6.58     12.47    118.33   3.8      0                        
GMMC18CC0062     GAGE1            20612052         3.91     34.245   168.25   0.7      0                        
GMMC18CC0063     GAGE1            20605043         11.319   27.175   0.18     4.8      0                        
GMMC18CC0064     GAGE1            20612010         4.52     36.665   45.81    0.9      0                        
GMMC18CC0065     GAGE1            20606032         2.64     27.865   114.88   0.5      0                        
GMMC19CC0001     GAGE1            23811028         17.88    35.04    287.51   2.5      0                        
GMMC19CC0002     GAGE1            23708027         2.55     44.57    135.51   1.6      0                        
GMMC19CC0003     GAGE1            23708023         4.83     57.89    110.77   1.2      0                        
GMMC19CC0004     GAGE1            23707008         6.56     22.35    150.97   2.4      0                        
GMMC19CC0005     GAGE1            23707011         5.82     23.55    115.61   1.4      0                        
GMMC19CC0006     GAGE1            23707015         10.68    35.28    223.49   1.5      0                        
GMMC19CC0007     GAGE1            23702032         31.33    41.94    286.89   1.5      0                        
GMMC19CC0008     GAGE1            23707014         1.84     26.62    109.67   3.0      0                        
GMMC19CC0009     GAGE1            23702039         7.98     30.74    156.3    3.6      0                        
GMMC19CC0010     GAGE1            23707007         1.71     27.4     199.47   3.2      0                        
GMMC19CC0011     GAGE1            23707007         0.58     27.43    34.99    4.1      0                        
GMMC19CC0012     GAGE1            23707003         1.35     21.13    64.73    1.5      0                        
GMMC19CC0013     GAGE1            23707005         3.06     29.33    89.49    2.0      0                        
GMMC19CC0014     GAGE1            23702037         1.74     47.0     68.33    3.2      0                        
GMMC19CC0015     GAGE1            23702036         0.92     33.63    146.47   14.7     0                        
GMMC19CC0016     GAGE1            23701029         15.24    41.08    262.15   1.1      0                        
GMMC19CC0017     GAGE1            23701011         1.64     84.95    112.92   2.2      0                        
GMMC19CC0018     GAGE1            23701016         2.92     38.67    87.04    3.7      0                        
GMMC19CC0019     GAGE1            23701023         2.44     45.06    116.79   3.3      0                        
GMMC19CC0020     GAGE1            23701008         1.28     42.45    132.0    1.8      0                        
GMMC19CC0021     GAGE1            23701035         6.38     26.48    113.86   2.1      0                        
GMMC19CC0022     GAGE1            23701019         0.63     48.08    125.76   2.7      0                        
GMMC19CC0023     GAGE1            23701001         2.49     26.88    1146.75  1.0      0                        
GMMC19CC0024     GAGE1            23701034         8.73     25.47    197.92   3.0      0                        
GMMC19CC0025     GAGE1            20713008         8.82     25.54    185.33   4.4      0                        
GMMC19CC0026     GAGE1            23816037         4.09     24.05    265.33   1.0      0                        
GMMC19CC0027     GAGE1            23816006         7.8      24.64    157.35   4.6      0                        
GMMC19CC0028     GAGE1            23809053         4.37     37.51    94.76    4.5      0                        
GMMC19CC0029     GAGE1            23809015         6.92     23.24    132.06   5.2      0                        
GMMC19CC0030     GAGE1            23809019         1.36     27.35    55.35    1.0      0                        
GMMC19CC0031     GAGE1            23809014         12.2     40.95    183.31   3.6      0                        
GMMC19CC0032     GAGE1            23809004         1.37     42.91    132.65   1.2      0                        
GMMC19CC0033     GAGE1            23809005         1.17     55.64    79.56    3.1      0                        
GMMC19CC0034     GAGE1            23809049         3.11     22.98    109.51   3.2      0                        
GMMC19CC0035     GAGE1            23808016         3.21     26.58    93.28    1.7      0                        
GMMC19CC0036     GAGE1            23701017         2.52     53.05    85.37    0.6      0                        
GMMC19CC0037     GAGE1            23702015         11.69    77.24    164.36   3.0      0                        
GMMC19CC0038     GAGE1            23815017         9.9      50.49    150.53   3.7      0                        
GMMC19CC0039     GAGE1            23815016         3.33     54.03    87.47    2.7      0                        
GMMC19CC0040     GAGE1            23815015         2.65     37.71    205.42   0.9      0                        
GMMC19CC0041     GAGE1            23815005         2.81     33.67    115.95   2.1      0                        
GMMC19CC0042     GAGE1            23815004         1.08     29.02    107.0    0.7      0                        
GMMC19CC0043     GAGE1            23815003         2.17     34.17    126.03   0.8      0                        
GMMC19CC0044     GAGE1            23815002         2.67     39.97    170.39   3.6      0                        