[TITLE]
;;Project Title/Notes

[OPTIONS]
;;Option             Value
FLOW_UNITS           CFS
INFILTRATION         HORTON
FLOW_ROUTING         DYNWAVE
LINK_OFFSETS         DEPTH
MIN_SLOPE            0
ALLOW_PONDING        YES
SKIP_STEADY_STATE    NO

START_DATE           01/01/2002
START_TIME           00:00:00
REPORT_START_DATE    01/01/2002
REPORT_START_TIME    00:00:00
END_DATE             01/02/2002
END_TIME             00:00:00
SWEEP_START          01/01
SWEEP_END            12/31
DRY_DAYS             5.000000
REPORT_STEP          00:01:00
WET_STEP             00:05:00
DRY_STEP             01:00:00
ROUTING_STEP         0:00:10 

INERTIAL_DAMPING     NONE
NORMAL_FLOW_LIMITED  BOTH
FORCE_MAIN_EQUATION  H-W
VARIABLE_STEP        0.75
LENGTHENING_STEP     10
MIN_SURFAREA         12.557
MAX_TRIALS           8
HEAD_TOLERANCE       0.000100
SYS_FLOW_TOL         5
LAT_FLOW_TOL         5
MINIMUM_STEP         0
THREADS              1

[EVAPORATION]
;;Data Source    Parameters
;;-------------- ----------------
CONSTANT         0.0
DRY_ONLY         NO

[RAINGAGES]
;;Name           Format    Interval SCF      Source    
;;-------------- --------- ------ ------ ----------
1                INTENSITY 1:00     1.0      TIMESERIES MyStorm         

[SUBCATCHMENTS]
;;Name           Rain Gage        Outlet           Area     %Imperv  Width    %Slope   CurbLen  SnowPack        
;;-------------- ---------------- ---------------- -------- -------- -------- -------- -------- ----------------
W1               1                N232             18.157000 0.000000 622.538442 0.500000 0.000000                 
W10              1                N112             1.835000 0.000000 197.903272 0.500000 0.000000                 
W100             1                N120             1.625000 0.000000 186.221588 0.500000 0.000000                 
W101             1                N98              5.077000 0.000000 329.192700 0.500000 0.000000                 
W102             1                N130             3.280000 0.000000 264.595248 0.500000 0.000000                 
W103             1                N122             2.615000 0.000000 236.270659 0.500000 0.000000                 
W104             1                N131             1.195000 0.000000 159.734501 0.500000 0.000000                 
W105             1                N132             0.276000 0.000000 76.804894 0.500000 0.000000                 
W106             1                N133             0.337000 0.000000 84.844183 0.500000 0.000000                 
W107             1                N106             1.570000 0.000000 183.060438 0.500000 0.000000                 
W108             1                N10              0.282000 0.000000 77.605748 0.500000 0.000000                 
W109             1                N11              0.742000 0.000000 125.847330 0.500000 0.000000                 
W11              1                N111             1.248000 0.000000 163.210292 0.500000 0.000000                 
W110             1                N13              0.819000 0.000000 132.182100 0.500000 0.000000                 
W111             1                N22              2.994000 0.000000 252.795639 0.500000 0.000000                 
W112             1                N76              2.865000 0.000000 247.298493 0.500000 0.000000                 
W113             1                N20              1.554000 0.000000 182.146346 0.500000 0.000000                 
W114             1                N55              3.606000 0.000000 277.415644 0.500000 0.000000                 
W115             1                N24              0.669000 0.000000 119.524465 0.500000 0.000000                 
W116             1                N34              1.545000 0.000000 181.569177 0.500000 0.000000                 
W117             1                N41              1.717000 0.000000 191.415153 0.500000 0.000000                 
W118             1                N46              2.712000 0.000000 240.583315 0.500000 0.000000                 
W119             1                N167             0.339000 0.000000 85.121922 0.500000 0.000000                 
W12              1                N145             2.322000 0.000000 222.616573 0.500000 0.000000                 
W120             1                N61              2.216000 0.000000 217.503159 0.500000 0.000000                 
W121             1                N62              1.527000 0.000000 180.564373 0.500000 0.000000                 
W122             1                N57              2.044000 0.000000 208.866211 0.500000 0.000000                 
W123             1                N58              1.351000 0.000000 169.791030 0.500000 0.000000                 
W124             1                N51              2.135000 0.000000 213.475845 0.500000 0.000000                 
W125             1                N65              0.855000 0.000000 135.087042 0.500000 0.000000                 
W126             1                N207             2.696000 0.000000 239.872144 0.500000 0.000000                 
W127             1                N113             0.956000 0.000000 142.819163 0.500000 0.000000                 
W128             1                N109             2.074000 0.000000 210.400595 0.500000 0.000000                 
W129             1                N111             1.033000 0.000000 148.512638 0.500000 0.000000                 
W13              1                N169             21.176000 0.000000 672.303241 0.500000 0.000000                 
W14              1                N126             5.740000 0.000000 350.014279 0.500000 0.000000                 
W15              1                N127             0.471000 0.000000 100.257510 0.500000 0.000000                 
W16              1                N114             6.775000 0.000000 380.284983 0.500000 0.000000                 
W17              1                N103             3.758000 0.000000 283.219925 0.500000 0.000000                 
W18              1                N128             4.305000 0.000000 303.146446 0.500000 0.000000                 
W19              1                N239             2.803000 0.000000 244.590907 0.500000 0.000000                 
W2               1                N234             60.506000 0.000000 1136.426425 0.500000 0.000000                 
W20              1                N115             6.050000 0.000000 359.361352 0.500000 0.000000                 
W21              1                N100             4.674000 0.000000 315.839054 0.500000 0.000000                 
W22              1                N264             30.473000 0.000000 806.493461 0.500000 0.000000                 
W23              1                N118             1.966000 0.000000 204.824228 0.500000 0.000000                 
W24              1                N264             8.370000 0.000000 422.683148 0.500000 0.000000                 
W25              1                N251             0.904000 0.000000 138.932117 0.500000 0.000000                 
W26              1                N238             1.385000 0.000000 171.917329 0.500000 0.000000                 
W27              1                N102             7.010000 0.000000 386.799721 0.500000 0.000000                 
W28              1                N147             2.451000 0.000000 228.742413 0.500000 0.000000                 
W29              1                N263             35.229000 0.000000 867.146926 0.500000 0.000000                 
W3               1                N250             10.423000 0.000000 471.661511 0.500000 0.000000                 
W30              1                N121             3.464000 0.000000 271.919936 0.500000 0.000000                 
W31              1                N238             13.599000 0.000000 538.755477 0.500000 0.000000                 
W32              1                N123             2.440000 0.000000 228.188636 0.500000 0.000000                 
W33              1                N97              12.094000 0.000000 508.077762 0.500000 0.000000                 
W34              1                N252             5.082000 0.000000 329.352519 0.500000 0.000000                 
W35              1                N255             2.918000 0.000000 249.546367 0.500000 0.000000                 
W36              1                N95              3.881000 0.000000 287.823610 0.500000 0.000000                 
W37              1                N262             39.194000 0.000000 914.637967 0.500000 0.000000                 
W38              1                N81              4.765000 0.000000 318.921873 0.500000 0.000000                 
W39              1                N80              5.892000 0.000000 354.617544 0.500000 0.000000                 
W4               1                N248             17.732000 0.000000 615.205833 0.500000 0.000000                 
W40              1                N270             45.021000 0.000000 980.273820 0.500000 0.000000                 
W41              1                N262             8.026000 0.000000 413.889667 0.500000 0.000000                 
W42              1                N260             5.739000 0.000000 349.979836 0.500000 0.000000                 
W43              1                N92              9.667000 0.000000 454.240952 0.500000 0.000000                 
W44              1                N90              2.079000 0.000000 210.641147 0.500000 0.000000                 
W45              1                N271             10.057000 0.000000 463.319602 0.500000 0.000000                 
W46              1                N280             22.709000 0.000000 696.207146 0.500000 0.000000                 
W47              1                N87              3.380000 0.000000 268.594099 0.500000 0.000000                 
W48              1                N14              5.581000 0.000000 345.131825 0.500000 0.000000                 
W49              1                N15              2.253000 0.000000 219.308239 0.500000 0.000000                 
W5               1                N235             26.528000 0.000000 752.473328 0.500000 0.000000                 
W50              1                N259             14.608000 0.000000 558.393275 0.500000 0.000000                 
W51              1                N69              2.881000 0.000000 247.997048 0.500000 0.000000                 
W52              1                N83              7.251000 0.000000 393.404898 0.500000 0.000000                 
W53              1                N259             4.308000 0.000000 303.227097 0.500000 0.000000                 
W54              1                N261             6.412000 0.000000 369.932380 0.500000 0.000000                 
W55              1                N272             3.526000 0.000000 274.346217 0.500000 0.000000                 
W56              1                N275             27.078000 0.000000 760.237717 0.500000 0.000000                 
W57              1                N1               1.466000 0.000000 176.865708 0.500000 0.000000                 
W58              1                N17              6.537000 0.000000 373.544395 0.500000 0.000000                 
W59              1                N277             4.681000 0.000000 316.085629 0.500000 0.000000                 
W6               1                N108             1.970000 0.000000 205.043296 0.500000 0.000000                 
W60              1                N2               3.561000 0.000000 275.712324 0.500000 0.000000                 
W61              1                N27              4.547000 0.000000 311.521812 0.500000 0.000000                 
W62              1                N9               3.837000 0.000000 286.172130 0.500000 0.000000                 
W63              1                N4               4.092000 0.000000 295.536900 0.500000 0.000000                 
W64              1                N8               5.349000 0.000000 337.893225 0.500000 0.000000                 
W65              1                N18              3.283000 0.000000 264.714372 0.500000 0.000000                 
W66              1                N30              4.182000 0.000000 298.777035 0.500000 0.000000                 
W67              1                N278             29.615000 0.000000 795.055756 0.500000 0.000000                 
W68              1                N45              3.033000 0.000000 254.415656 0.500000 0.000000                 
W69              1                N23              1.412000 0.000000 173.576855 0.500000 0.000000                 
W7               1                N244             18.698000 0.000000 631.739229 0.500000 0.000000                 
W70              1                N75              4.264000 0.000000 301.699772 0.500000 0.000000                 
W71              1                N6               4.403000 0.000000 306.566153 0.500000 0.000000                 
W72              1                N39              1.515000 0.000000 179.813955 0.500000 0.000000                 
W73              1                N67              1.676000 0.000000 189.124820 0.500000 0.000000                 
W74              1                N52              2.894000 0.000000 248.529443 0.500000 0.000000                 
W75              1                N49              3.217000 0.000000 262.028489 0.500000 0.000000                 
W76              1                N38              0.928000 0.000000 140.760903 0.500000 0.000000                 
W77              1                N73              27.872000 0.000000 771.298294 0.500000 0.000000                 
W78              1                N74              6.501000 0.000000 372.505149 0.500000 0.000000                 
W79              1                N53              1.846000 0.000000 198.483708 0.500000 0.000000                 
W8               1                N266             123.774000 0.000000 1625.388872 0.500000 0.000000                 
W80              1                N48              2.538000 0.000000 232.756572 0.500000 0.000000                 
W81              1                N36              2.242000 0.000000 218.745869 0.500000 0.000000                 
W82              1                N56              3.351000 0.000000 267.431303 0.500000 0.000000                 
W83              1                N60              1.975000 0.000000 205.314867 0.500000 0.000000                 
W84              1                N63              1.644000 0.000000 187.308711 0.500000 0.000000                 
W85              1                N54              1.760000 0.000000 193.797023 0.500000 0.000000                 
W86              1                N72              87.699000 0.000000 1368.164676 0.500000 0.000000                 
W87              1                N66              1.910000 0.000000 201.899880 0.500000 0.000000                 
W88              1                N71              8.691000 0.000000 430.714239 0.500000 0.000000                 
W89              1                N184             1.947000 0.000000 203.845794 0.500000 0.000000                 
W9               1                N137             15.577000 0.000000 576.611670 0.500000 0.000000                 
W90              1                N70              7.178000 0.000000 391.431142 0.500000 0.000000                 
W91              1                N33              2.431000 0.000000 227.784521 0.500000 0.000000                 
W92              1                N32              14.013000 0.000000 546.907877 0.500000 0.000000                 
W93              1                N261             10.125000 0.000000 464.871284 0.500000 0.000000                 
W94              1                N267             77.610000 0.000000 1287.067785 0.500000 0.000000                 
W95              1                N233             19.662000 0.000000 647.823345 0.500000 0.000000                 
W96              1                N231             20.055000 0.000000 654.263182 0.500000 0.000000                 
W97              1                N125             2.706000 0.000000 240.312039 0.500000 0.000000                 
W98              1                N119             1.240000 0.000000 162.654870 0.500000 0.000000                 
W99              1                N134             0.201000 0.000000 65.485764 0.500000 0.000000                 

[SUBAREAS]
;;Subcatchment   N-Imperv   N-Perv     S-Imperv   S-Perv     PctZero    RouteTo    PctRouted 
;;-------------- ---------- ---------- ---------- ---------- ---------- ---------- ----------
W1               0.016000   0.100000   0.050000   0.150000   25.000000  OUTLET    
W10              0.016000   0.100000   0.050000   0.150000   25.000000  OUTLET    
W100             0.016000   0.100000   0.050000   0.150000   25.000000  OUTLET    
W101             0.016000   0.100000   0.050000   0.150000   25.000000  OUTLET    
W102             0.016000   0.100000   0.050000   0.150000   25.000000  OUTLET    
W103             0.016000   0.100000   0.050000   0.150000   25.000000  OUTLET    
W104             0.016000   0.100000   0.050000   0.150000   25.000000  OUTLET    
W105             0.016000   0.100000   0.050000   0.150000   25.000000  OUTLET    
W106             0.016000   0.100000   0.050000   0.150000   25.000000  OUTLET    
W107             0.016000   0.100000   0.050000   0.150000   25.000000  OUTLET    
W108             0.016000   0.100000   0.050000   0.150000   25.000000  OUTLET    
W109             0.016000   0.100000   0.050000   0.150000   25.000000  OUTLET    
W11              0.016000   0.100000   0.050000   0.150000   25.000000  OUTLET    
W110             0.016000   0.100000   0.050000   0.150000   25.000000  OUTLET    
W111             0.016000   0.100000   0.050000   0.150000   25.000000  OUTLET    
W112             0.016000   0.100000   0.050000   0.150000   25.000000  OUTLET    
W113             0.016000   0.100000   0.050000   0.150000   25.000000  OUTLET    
W114             0.016000   0.100000   0.050000   0.150000   25.000000  OUTLET    
W115             0.016000   0.100000   0.050000   0.150000   25.000000  OUTLET    
W116             0.016000   0.100000   0.050000   0.150000   25.000000  OUTLET    
W117             0.016000   0.100000   0.050000   0.150000   25.000000  OUTLET    
W118             0.016000   0.100000   0.050000   0.150000   25.000000  OUTLET    
W119             0.016000   0.100000   0.050000   0.150000   25.000000  OUTLET    
W12              0.016000   0.100000   0.050000   0.150000   25.000000  OUTLET    
W120             0.016000   0.100000   0.050000   0.150000   25.000000  OUTLET    
W121             0.016000   0.100000   0.050000   0.150000   25.000000  OUTLET    
W122             0.016000   0.100000   0.050000   0.150000   25.000000  OUTLET    
W123             0.016000   0.100000   0.050000   0.150000   25.000000  OUTLET    
W124             0.016000   0.100000   0.050000   0.150000   25.000000  OUTLET    
W125             0.016000   0.100000   0.050000   0.150000   25.000000  OUTLET    
W126             0.016000   0.100000   0.050000   0.150000   25.000000  OUTLET    
W127             0.016000   0.100000   0.050000   0.150000   25.000000  OUTLET    
W128             0.016000   0.100000   0.050000   0.150000   25.000000  OUTLET    
W129             0.016000   0.100000   0.050000   0.150000   25.000000  OUTLET    
W13              0.016000   0.100000   0.050000   0.150000   25.000000  OUTLET    
W14              0.016000   0.100000   0.050000   0.150000   25.000000  OUTLET    
W15              0.016000   0.100000   0.050000   0.150000   25.000000  OUTLET    
W16              0.016000   0.100000   0.050000   0.150000   25.000000  OUTLET    
W17              0.016000   0.100000   0.050000   0.150000   25.000000  OUTLET    
W18              0.016000   0.100000   0.050000   0.150000   25.000000  OUTLET    
W19              0.016000   0.100000   0.050000   0.150000   25.000000  OUTLET    
W2               0.016000   0.100000   0.050000   0.150000   25.000000  OUTLET    
W20              0.016000   0.100000   0.050000   0.150000   25.000000  OUTLET    
W21              0.016000   0.100000   0.050000   0.150000   25.000000  OUTLET    
W22              0.016000   0.100000   0.050000   0.150000   25.000000  OUTLET    
W23              0.016000   0.100000   0.050000   0.150000   25.000000  OUTLET    
W24              0.016000   0.100000   0.050000   0.150000   25.000000  OUTLET    
W25              0.016000   0.100000   0.050000   0.150000   25.000000  OUTLET    
W26              0.016000   0.100000   0.050000   0.150000   25.000000  OUTLET    
W27              0.016000   0.100000   0.050000   0.150000   25.000000  OUTLET    
W28              0.016000   0.100000   0.050000   0.150000   25.000000  OUTLET    
W29              0.016000   0.100000   0.050000   0.150000   25.000000  OUTLET    
W3               0.016000   0.100000   0.050000   0.150000   25.000000  OUTLET    
W30              0.016000   0.100000   0.050000   0.150000   25.000000  OUTLET    
W31              0.016000   0.100000   0.050000   0.150000   25.000000  OUTLET    
W32              0.016000   0.100000   0.050000   0.150000   25.000000  OUTLET    
W33              0.016000   0.100000   0.050000   0.150000   25.000000  OUTLET    
W34              0.016000   0.100000   0.050000   0.150000   25.000000  OUTLET    
W35              0.016000   0.100000   0.050000   0.150000   25.000000  OUTLET    
W36              0.016000   0.100000   0.050000   0.150000   25.000000  OUTLET    
W37              0.016000   0.100000   0.050000   0.150000   25.000000  OUTLET    
W38              0.016000   0.100000   0.050000   0.150000   25.000000  OUTLET    
W39              0.016000   0.100000   0.050000   0.150000   25.000000  OUTLET    
W4               0.016000   0.100000   0.050000   0.150000   25.000000  OUTLET    
W40              0.016000   0.100000   0.050000   0.150000   25.000000  OUTLET    
W41              0.016000   0.100000   0.050000   0.150000   25.000000  OUTLET    
W42              0.016000   0.100000   0.050000   0.150000   25.000000  OUTLET    
W43              0.016000   0.100000   0.050000   0.150000   25.000000  OUTLET    
W44              0.016000   0.100000   0.050000   0.150000   25.000000  OUTLET    
W45              0.016000   0.100000   0.050000   0.150000   25.000000  OUTLET    
W46              0.016000   0.100000   0.050000   0.150000   25.000000  OUTLET    
W47              0.016000   0.100000   0.050000   0.150000   25.000000  OUTLET    
W48              0.016000   0.100000   0.050000   0.150000   25.000000  OUTLET    
W49              0.016000   0.100000   0.050000   0.150000   25.000000  OUTLET    
W5               0.016000   0.100000   0.050000   0.150000   25.000000  OUTLET    
W50              0.016000   0.100000   0.050000   0.150000   25.000000  OUTLET    
W51              0.016000   0.100000   0.050000   0.150000   25.000000  OUTLET    
W52              0.016000   0.100000   0.050000   0.150000   25.000000  OUTLET    
W53              0.016000   0.100000   0.050000   0.150000   25.000000  OUTLET    
W54              0.016000   0.100000   0.050000   0.150000   25.000000  OUTLET    
W55              0.016000   0.100000   0.050000   0.150000   25.000000  OUTLET    
W56              0.016000   0.100000   0.050000   0.150000   25.000000  OUTLET    
W57              0.016000   0.100000   0.050000   0.150000   25.000000  OUTLET    
W58              0.016000   0.100000   0.050000   0.150000   25.000000  OUTLET    
W59              0.016000   0.100000   0.050000   0.150000   25.000000  OUTLET    
W6               0.016000   0.100000   0.050000   0.150000   25.000000  OUTLET    
W60              0.016000   0.100000   0.050000   0.150000   25.000000  OUTLET    
W61              0.016000   0.100000   0.050000   0.150000   25.000000  OUTLET    
W62              0.016000   0.100000   0.050000   0.150000   25.000000  OUTLET    
W63              0.016000   0.100000   0.050000   0.150000   25.000000  OUTLET    
W64              0.016000   0.100000   0.050000   0.150000   25.000000  OUTLET    
W65              0.016000   0.100000   0.050000   0.150000   25.000000  OUTLET    
W66              0.016000   0.100000   0.050000   0.150000   25.000000  OUTLET    
W67              0.016000   0.100000   0.050000   0.150000   25.000000  OUTLET    
W68              0.016000   0.100000   0.050000   0.150000   25.000000  OUTLET    
W69              0.016000   0.100000   0.050000   0.150000   25.000000  OUTLET    
W7               0.016000   0.100000   0.050000   0.150000   25.000000  OUTLET    
W70              0.016000   0.100000   0.050000   0.150000   25.000000  OUTLET    
W71              0.016000   0.100000   0.050000   0.150000   25.000000  OUTLET    
W72              0.016000   0.100000   0.050000   0.150000   25.000000  OUTLET    
W73              0.016000   0.100000   0.050000   0.150000   25.000000  OUTLET    
W74              0.016000   0.100000   0.050000   0.150000   25.000000  OUTLET    
W75              0.016000   0.100000   0.050000   0.150000   25.000000  OUTLET    
W76              0.016000   0.100000   0.050000   0.150000   25.000000  OUTLET    
W77              0.016000   0.100000   0.050000   0.150000   25.000000  OUTLET    
W78              0.016000   0.100000   0.050000   0.150000   25.000000  OUTLET    
W79              0.016000   0.100000   0.050000   0.150000   25.000000  OUTLET    
W8               0.016000   0.100000   0.050000   0.150000   25.000000  OUTLET    
W80              0.016000   0.100000   0.050000   0.150000   25.000000  OUTLET    
W81              0.016000   0.100000   0.050000   0.150000   25.000000  OUTLET    
W82              0.016000   0.100000   0.050000   0.150000   25.000000  OUTLET    
W83              0.016000   0.100000   0.050000   0.150000   25.000000  OUTLET    
W84              0.016000   0.100000   0.050000   0.150000   25.000000  OUTLET    
W85              0.016000   0.100000   0.050000   0.150000   25.000000  OUTLET    
W86              0.016000   0.100000   0.050000   0.150000   25.000000  OUTLET    
W87              0.016000   0.100000   0.050000   0.150000   25.000000  OUTLET    
W88              0.016000   0.100000   0.050000   0.150000   25.000000  OUTLET    
W89              0.016000   0.100000   0.050000   0.150000   25.000000  OUTLET    
W9               0.016000   0.100000   0.050000   0.150000   25.000000  OUTLET    
W90              0.016000   0.100000   0.050000   0.150000   25.000000  OUTLET    
W91              0.016000   0.100000   0.050000   0.150000   25.000000  OUTLET    
W92              0.016000   0.100000   0.050000   0.150000   25.000000  OUTLET    
W93              0.016000   0.100000   0.050000   0.150000   25.000000  OUTLET    
W94              0.016000   0.100000   0.050000   0.150000   25.000000  OUTLET    
W95              0.016000   0.100000   0.050000   0.150000   25.000000  OUTLET    
W96              0.016000   0.100000   0.050000   0.150000   25.000000  OUTLET    
W97              0.016000   0.100000   0.050000   0.150000   25.000000  OUTLET    
W98              0.016000   0.100000   0.050000   0.150000   25.000000  OUTLET    
W99              0.016000   0.100000   0.050000   0.150000   25.000000  OUTLET    

[INFILTRATION]
;;Subcatchment   MaxRate    MinRate    Decay      DryTime    MaxInfil  
;;-------------- ---------- ---------- ---------- ---------- ----------
W1               3.0        0.5        4          7          0         
W10              3.0        0.5        4          7          0         
W100             3.0        0.5        4          7          0         
W101             3.0        0.5        4          7          0         
W102             3.0        0.5        4          7          0         
W103             3.0        0.5        4          7          0         
W104             3.0        0.5        4          7          0         
W105             3.0        0.5        4          7          0         
W106             3.0        0.5        4          7          0         
W107             3.0        0.5        4          7          0         
W108             3.0        0.5        4          7          0         
W109             3.0        0.5        4          7          0         
W11              3.0        0.5        4          7          0         
W110             3.0        0.5        4          7          0         
W111             3.0        0.5        4          7          0         
W112             3.0        0.5        4          7          0         
W113             3.0        0.5        4          7          0         
W114             3.0        0.5        4          7          0         
W115             3.0        0.5        4          7          0         
W116             3.0        0.5        4          7          0         
W117             3.0        0.5        4          7          0         
W118             3.0        0.5        4          7          0         
W119             3.0        0.5        4          7          0         
W12              3.0        0.5        4          7          0         
W120             3.0        0.5        4          7          0         
W121             3.0        0.5        4          7          0         
W122             3.0        0.5        4          7          0         
W123             3.0        0.5        4          7          0         
W124             3.0        0.5        4          7          0         
W125             3.0        0.5        4          7          0         
W126             3.0        0.5        4          7          0         
W127             3.0        0.5        4          7          0         
W128             3.0        0.5        4          7          0         
W129             3.0        0.5        4          7          0         
W13              3.0        0.5        4          7          0         