[TITLE]
;;Project Title/Notes
Duplicated from DELCORA 2015.inp, with further modifications including:
1. Put the abandoned 54" West End Interceptor in service
   based on drawing "C-101- ASBUILT_model update.pdf"
2. Convert all Storage Nodes to Junction Nodes, Node MOIDs are updated
   to reflect GIS GXP-ID based on location vicinity.
   (by modifying .inp file, update link connection,
    subcatchment receiving node, DWF node, RTC rule node,
    node cooridinate, Tag node consistently.)

[OPTIONS]
;;Option             Value
FLOW_UNITS           CFS
INFILTRATION         HORTON
FLOW_ROUTING         DYNWAVE
LINK_OFFSETS         DEPTH
MIN_SLOPE            0
ALLOW_PONDING        YES
SKIP_STEADY_STATE    NO

START_DATE           07/17/1994
START_TIME           00:00:00
REPORT_START_DATE    07/17/1994
REPORT_START_TIME    00:00:00
END_DATE             07/20/1994
END_TIME             00:00:00
SWEEP_START          01/01
SWEEP_END            12/31
DRY_DAYS             0
REPORT_STEP          00:05:00
WET_STEP             00:01:00
DRY_STEP             01:00:00
ROUTING_STEP         0:00:05 

INERTIAL_DAMPING     PARTIAL
NORMAL_FLOW_LIMITED  SLOPE
FORCE_MAIN_EQUATION  H-W
VARIABLE_STEP        0.75
LENGTHENING_STEP     0
MIN_SURFAREA         12.566
MAX_TRIALS           0
HEAD_TOLERANCE       0
SYS_FLOW_TOL         5
LAT_FLOW_TOL         5
MINIMUM_STEP         0.5
THREADS              1

[EVAPORATION]
;;Data Source    Parameters
;;-------------- ----------------
CONSTANT         0.0
DRY_ONLY         NO

[RAINGAGES]
;;Name           Format    Interval SCF      Source    
;;-------------- --------- ------ ------ ----------
GAGE1            VOLUME    1:00     0        TIMESERIES DELCORA_TYP_YR_RAINFALL

[SUBCATCHMENTS]
;;Name           Rain Gage        Outlet           Area     %Imperv  Width    %Slope   CurbLen  SnowPack        
;;-------------- ---------------- ---------------- -------- -------- -------- -------- -------- ----------------
; * REG 02 DRAINAGE AREAS *  Watershed area is 3% of original  width reduced to 3% original value. *H1       1         '02A'    '21301'             2700        20.7        75.2       0.010        0.04         0.1        0.05     0.1   1.05    0.1  0.00139 *H1       1         '02B'    '209'               2600        31.7        79.0       0.004        0.04         0.1        0.05     0.1   1.05    0.1  0.00139 *H1       1         '02C'    '10602'             1700        10.0        71.5       0.006        0.04         0.1        0.05     0.1   1.05    0.1  0.00139
02A              GAGE1            MH-2611          20.7     75.2     1700     1        0                        
02B              GAGE1            MH-2696          31.7     79       4200     0.4      0                        
02C              GAGE1            MH-3591          0.3      75       100      0.6      0                        
03B              GAGE1            MH-2439          21.9     77       2100     2        0                        
03C              GAGE1            MH-2345          46.5     79.7     2500     3        0                        
03D              GAGE1            MH-2528          18.5     76.3     2300     2        0                        
03E              GAGE1            MH-2680          2.9      77.4     3200     2        0                        
;	*	REG	4	DRAINAGE	AREAS	*	Watershed	area	is	39%	of	original	width	reduced	to	39%	original	value.	*H1	1	'04C'	'11103'	700	6.4	76.2	0.02	0.04	0.1	0.05	0.1	1.05	0.1	0.00139
04A              GAGE1            MH-2422          10.8     84.8     1400     2        0                        
04B              GAGE1            MH-2630          22.6     79.4     2200     2        0                        
04C              GAGE1            MH-2686          2.5      77       300      2        0                        
;	*	REG	5	DRAINAGE	AREAS	*	H1	1	'05A'	'1171010'	N/A	97.3	80	0.008	0.04	0.1	0.05	0.1	1.05	0.1	0.00139	*	H1	1	'05B'	'117100703'	N/A	26.4	78.5	0.002	0.04	0.1	0.05	0.1	1.05	0.1	0.00139	;	*	H1	1	'05D'	'11708'	N/A	32	0	0.008	0.04	0.1	0.05	0.1	1.05	0.1	0.00139	*	Watershed	area	is	54%	of	original	width	reduced	to	54%	original	value.	*H1	1	'05E'	'11703'	5200	53.3	76.1	0.004	0.04	0.1	0.05	0.1	1.05	0.1	0.00139
05C              GAGE1            MH-2287          32       78.3     5400     0.8      0                        
05D              GAGE1            MH-2454          29.1     77.2     4100     0.8      0                        
05E              GAGE1            MH-2591A         28.6     76.3     2800     0.4      0                        
;	*	REG	8	DRAINAGE	AREAS	*	Watershed	'08C'	was	100%	disconnected	from	system.	*H1	1	'08C'	'4220206'	1100	9.8	75.1	0.006	0.04	0.1	0.05	0.1	1.05	0.1	0.00139
08A              GAGE1            MH-1812          83.2     69.7     8500     2        0                        
08B              GAGE1            MH-2250          90.2     70.6     10500    3        0                        
08D              GAGE1            MH-2109          3.8      76.1     400      0.6      0                        
;	*	REG	9	DRAINAGE	AREAS	*	Watershed	area	is	60%	of	original	width	reduced	to	60%	original	value.	*H1	1	'09A'	'4140402'	4700	48.6	75	0.025	0.04	0.1	0.05	0.1	1.05	0.1	0.00139
09A              GAGE1            MH-1838          29.3     75.1     2800     2.5      0                        
;	*	REG	10	DRAINAGE	AREAS
10A              GAGE1            MH-1413          46.6     75.9     6200     1.5      0                        
;	*	REG	11	DRAINAGE	AREAS	*	Watershed	area	is	29%	of	original	width	reduced	to	29%	original	value.	*H1	1	'11D'	'40801'	1700	8.6	75	0.015	0.04	0.1	0.05	0.1	1.05	0.1	0.00139
11A              GAGE1            MH-1464          11.8     76.1     1600     1.5      0                        
11B              GAGE1            MH-1359          31.4     76.5     4300     1.5      0                        
11C              GAGE1            MH-1593          6.3      76.2     1400     1.5      0                        
11D              GAGE1            MH-1711          2.5      75       500      1.5      0                        
;	*	REG	12	DRAINAGE	AREAS
12A              GAGE1            MH-3547          3.3      83.3     600      1.5      0                        
;	*	REG	13	DRAINAGE	AREAS
13A              GAGE1            MH-1049          25.3     91.4     2900     0.8      0                        
13B              GAGE1            MH-1229          19.7     93.5     3400     0.8      0                        
13C              GAGE1            MH-1284          7.2      82.9     1400     0.8      0                        
;	*	REG	14	DRAINAGE	AREAS
14A              GAGE1            MH-807           41.4     80.1     4200     1.6      0                        
14B              GAGE1            MH-972           11.8     75.6     2600     1.6      0                        
14C              GAGE1            MH-1009          10.5     78       2100     1.6      0                        
14D              GAGE1            MH-1167          2.4      81.1     400      1.6      0                        
;	*	REG	15	DRAINAGE	AREAS
15A              GAGE1            MH-851           8.6      52.8     1900     0.7      0                        
;	*	REG	16	DRAINAGE	AREAS
16A              GAGE1            MH-722           6.9      76       3000     1.2      0                        
;	*	REG	16/17	DRAINAGE	AREAS
16/17A           GAGE1            MH-697           36.4     79.6     3500     0.8      0                        
16/17B           GAGE1            MH-590           41.4     81.9     4200     1.2      0                        
16/17C           GAGE1            MH-891           17.2     76.3     3300     0.8      0                        
;	*	REG	17	DRAINAGE	AREAS
17A              GAGE1            MH-702           7.6      76.8     3300     1.2      0                        
;	*	REG	18	DRAINAGE	AREAS
18A              GAGE1            MH-478           27.2     95       2300     3.1      0                        
18B              GAGE1            MH-3039          4.8      75.1     2100     3.1      0                        
;	*	REG	19	DRAINAGE	AREAS	*	H1	1	'19A'	'5201246'	N/A	30.7	75	0	0.04	0.1	0.05	0.1	1.05	0.1	0.00139
19B              GAGE1            MH-203           73.5     69.7     6400     3.2      0                        
19C              GAGE1            MH-298           138.2    81.1     12000    3.1      0                        
19D              GAGE1            MH-510           71.5     69.4     7800     0.4      0                        
19E              GAGE1            MH-302           36.2     75       3300     3.2      0                        
19F              GAGE1            MH-372           38.6     73.7     6700     3.2      0                        
19G              GAGE1            MH-672           6.1      75       1500     3.2      0                        
;	*	REG	20	DRAINAGE	AREAS
20A              GAGE1            MH-1062          12.8     74.2     2500     1.5      0                        
;	*	REG	21	DRAINAGE	AREAS
21A              GAGE1            MH-1064          18.3     89.1     2700     0.3      0                        
;	*	REG	22	DRAINAGE	AREAS
22A              GAGE1            MH-968           17.3     86.7     3100     4        0                        
;	*	REG	23	DRAINAGE	AREAS
23A              GAGE1            MH-1304          9.1      95       1300     3        0                        
;	*	REG	24	DRAINAGE	AREAS	*	Watershed	area	is	60%	of	original	width	reduced	to	60%	original	value.	*H1	1	'24A'	'4020402'	2100	17.2	80.1	0.01	0.04	0.1	0.05	0.1	1.05	0.1	0.00139
24A              GAGE1            MH-1574          6.1      84.5     800      1        0                        
;	*	REG	25	DRAINAGE	AREAS
25A              GAGE1            MH-1399          23.6     80.1     3400     2.1      0                        
;	*	REG	26	DRAINAGE	AREAS
26A              GAGE1            MH-1160          18.2     80.2     2900     2        0                        
26B              GAGE1            MH-1251          8.6      77.1     2700     2        0                        
;	*	STONEY	CREEK	TRUNK	DRAINAGE	AREAS
SC1              GAGE1            MH-3370          49.1     71       3900     0.4      0                        
;	*	BOOTH	STREET	INTERCEPTOR	DRAINAGE	AREAS	*	H1	1	'BS1'	'20721'	N/A	18.4	94.9	0	0.04	0.1	0.05	0.1	1.05	0.1	0.00139	*	H1	1	'BS4'	'2072702'	N/A	63.2	81.6	0	0.04	0.1	0.05	0.1	1.05	0.1	0.00139	*	H1	1	'BS5'	'2072706'	N/A	60.2	79.1	0	0.04	0.1	0.05	0.1	1.05	0.1	0.00139	*	WEST	END	INTERCEPTOR	DRAINAGE	AREAS	*	H1	1	'WE1'	'32408'	N/A	39.7	76.1	0	0.04	0.1	0.05	0.1	1.05	0.1	0.00139
BS2              GAGE1            MH-2135B         22.2     75       3500     0.01     0                        
BS3              GAGE1            MH-2135B         14.2     82.7     2300     0.01     0                        
;	*	DELAWARE	RIVER	INTERCEPTOR	DRAINAGE	AREAS
DR1              GAGE1            MH-2757          10.1     75.8     1200     1        0                        
;	*	PENN	STREET	INTERCEPTOR	DRAINAGE	AREAS
PS1              GAGE1            MH-1259          2.9      75.2     1400     2        0                        
PS2              GAGE1            MH-1150          3.4      75       1000     2        0                        
;	*	CHESTER	CREEK	WEST	INTERCEPTOR	DRAINAGE	AREAS
CCW1             GAGE1            MH-995           18.9     87.5     3300     2        0                        
CCW2             GAGE1            MH-907           6.2      75.4     1800     2        0                        
;*	EDGMONT	AVENUT	INTERCEPTOR	DRAINAGE	AREAS
EA1              GAGE1            MH-1095          3.8      92.8     1200     2        0                        
;	*	RIDLEY	CREEK	INTERCEPTOR	DRAINAGE	AREAS
RC1              GAGE1            MH-777           2.2      74.5     700      2        0                        
RC10             GAGE1            MH-9             10.4     34       1000     0.5      0                        
;	*	REG	31	DRAINAGE	AREAS
31A              GAGE1            MH-1372          5.9      85.1     1500     1.5      0                        
;	*	REG	6	DRAINAGE	AREAS
07A_new          GAGE1            MH-2318          12.8     75.6     900      1.5      0                        
07B_new          GAGE1            MH-2380          18.5     37.3     800      1.5      0                        
;	*	REG	7	DRAINAGE	AREAS
07C_new          GAGE1            MH-2486          16.3     77.4     900      1.5      0                        

[SUBAREAS]
;;Subcatchment   N-Imperv   N-Perv     S-Imperv   S-Perv     PctZero    RouteTo    PctRouted 
;;-------------- ---------- ---------- ---------- ---------- ---------- ---------- ----------
02A              0.04       0.1        0.05       0.1        25         OUTLET    
02B              0.04       0.1        0.05       0.1        25         OUTLET    
02C              0.04       0.1        0.05       0.1        25         OUTLET    
03B              0.04       0.1        0.05       0.1        25         OUTLET    
03C              0.04       0.1        0.05       0.1        25         OUTLET    
03D              0.04       0.1        0.05       0.1        25         OUTLET    
03E              0.04       0.1        0.05       0.1        25         OUTLET    
04A              0.04       0.1        0.05       0.1        25         OUTLET    
04B              0.04       0.1        0.05       0.1        25         OUTLET    
04C              0.04       0.1        0.05       0.1        25         OUTLET    
05C              0.04       0.1        0.05       0.1        25         OUTLET    
05D              0.04       0.1        0.05       0.1        25         OUTLET    
05E              0.04       0.1        0.05       0.1        25         OUTLET    
08A              0.04       0.1        0.05       0.1        25         OUTLET    
08B              0.04       0.1        0.05       0.1        25         OUTLET    
08D              0.04       0.1        0.05       0.1        25         OUTLET    
09A              0.04       0.1        0.05       0.1        25         OUTLET    
10A              0.04       0.1        0.05       0.1        25         OUTLET    
11A              0.04       0.1        0.05       0.1        25         OUTLET    
11B              0.04       0.1        0.05       0.1        25         OUTLET    
11C              0.04       0.1        0.05       0.1        25         OUTLET    
11D              0.04       0.1        0.05       0.1        25         OUTLET    
12A              0.04       0.1        0.05       0.1        25         OUTLET    
13A              0.04       0.1        0.05       0.1        25         OUTLET    
13B              0.04       0.1        0.05       0.1        25         OUTLET    
13C              0.04       0.1        0.05       0.1        25         OUTLET    
14A              0.04       0.1        0.05       0.1        25         OUTLET    
14B              0.04       0.1        0.05       0.1        25         OUTLET    
14C              0.04       0.1        0.05       0.1        25         OUTLET    
14D              0.04       0.1        0.05       0.1        25         OUTLET    
15A              0.04       0.1        0.05       0.1        25         OUTLET    
16A              0.04       0.1        0.05       0.1        25         OUTLET    
16/17A           0.04       0.1        0.05       0.1        25         OUTLET    
16/17B           0.04       0.1        0.05       0.1        25         OUTLET    
16/17C           0.04       0.1        0.05       0.1        25         OUTLET    
17A              0.04       0.1        0.05       0.1        25         OUTLET    
18A              0.04       0.1        0.05       0.1        25         OUTLET    
18B              0.04       0.1        0.05       0.1        25         OUTLET    
19B              0.04       0.1        0.05       0.1        25         OUTLET    
19C              0.04       0.1        0.05       0.1        25         OUTLET    
19D              0.04       0.1        0.05       0.1        25         OUTLET    
19E              0.04       0.1        0.05       0.1        25         OUTLET    
19F              0.04       0.1        0.05       0.1        25         OUTLET    
19G              0.04       0.1        0.05       0.1        25         OUTLET    
20A              0.04       0.1        0.05       0.1        25         OUTLET    
21A              0.04       0.1        0.05       0.1        25         OUTLET    
22A              0.04       0.1        0.05       0.1        25         OUTLET    
23A              0.04       0.1        0.05       0.1        25         OUTLET    
24A              0.04       0.1        0.05       0.1        25         OUTLET    
25A              0.04       0.1        0.05       0.1        25         OUTLET    
26A              0.04       0.1        0.05       0.1        25         OUTLET    
26B              0.04       0.1        0.05       0.1        25         OUTLET    
SC1              0.04       0.1        0.05       0.1        25         OUTLET    
BS2              0.04       0.1        0.05       0.1        25         OUTLET    
BS3              0.04       0.1        0.05       0.1        25         OUTLET    
DR1              0.04       0.1        0.05       0.1        25         OUTLET    
PS1              0.04       0.1        0.05       0.1        25         OUTLET    
PS2              0.04       0.1        0.05       0.1        25         OUTLET    
CCW1             0.04       0.1        0.05       0.1        25         OUTLET    
CCW2             0.04       0.1        0.05       0.1        25         OUTLET    
EA1              0.04       0.1        0.05       0.1        25         OUTLET    
RC1              0.04       0.1        0.05       0.1        25         OUTLET    
RC10             0.04       0.1        0.05       0.1        25         OUTLET    
31A              0.04       0.1        0.05       0.1        25         OUTLET    
07A_new          0.04       0.1        0.05       0.1        25         OUTLET    
07B_new          0.04       0.1        0.05       0.1        25         OUTLET    
07C_new          0.04       0.1        0.05       0.1        25         OUTLET    

[INFILTRATION]
;;Subcatchment   MaxRate    MinRate    Decay      DryTime    MaxInfil  
;;-------------- ---------- ---------- ---------- ---------- ----------
02A              1.05       0.1        5.004      0.01665    0         
02B              1.05       0.1        5.004      0.01665    0         
02C              1.05       0.1        5.004      0.01665    0         
03B              1.05       0.1        5.004      0.01665    0         
03C              1.05       0.1        5.004      0.01665    0         
03D              1.05       0.1        5.004      0.01665    0         
03E              1.05       0.1        5.004      0.01665    0         
04A              1.05       0.1        5.004      0.01665    0         
04B              1.05       0.1        5.004      0.01665    0         
04C              1.05       0.1        5.004      0.01665    0         
05C              1.05       0.1        5.004      0.01665    0         
05D              1.05       0.1        5.004      0.01665    0         
05E              1.05       0.1        5.004      0.01665    0         
08A              1.05       0.1        5.004      0.01665    0         
08B              1.05       0.1        5.004      0.01665    0         
08D              1.05       0.1        5.004      0.01665    0         
09A              1.05       0.1        5.004      0.01665    0         
10A              1.05       0.1        5.004      0.01665    0         
11A              1.05       0.1        5.004      0.01665    0         
11B              1.05       0.1        5.004      0.01665    0         
11C              1.05       0.1        5.004      0.01665    0         
11D              1.05       0.1        5.004      0.01665    0         
12A              1.05       0.1        5.004      0.01665    0         
13A              1.05       0.1        5.004      0.01665    0         
13B              1.05       0.1        5.004      0.01665    0         
13C              1.05       0.1        5.004      0.01665    0         
14A              1.05       0.1        5.004      0.01665    0         
14B              1.05       0.1        5.004      0.01665    0         
14C              1.05       0.1        5.004      0.01665    0         
14D              1.05       0.1        5.004      0.01665    0         
15A              1.05       0.1        5.004      0.01665    0         
16A              1.05       0.1        5.004      0.01665    0         
16/17A           1.05       0.1        5.004      0.01665    0         
16/17B           1.05       0.1        5.004      0.01665    0         
16/17C           1.05       0.1        5.004      0.01665    0         
17A              1.05       0.1        5.004      0.01665    0         
18A              1.05       0.1        5.004      0.01665    0         
18B              1.05       0.1        5.004      0.01665    0         
19B              1.05       0.1        5.004      0.01665    0         
19C              1.05       0.1        5.004      0.01665    0         
19D              1.05       0.1        5.004      0.01665    0         
19E              1.05       0.1        5.004      0.01665    0         
19F              1.05       0.1        5.004      0.01665    0         
19G              1.05       0.1        5.004      0.01665    0         
20A              1.05       0.1        5.004      0.01665    0         
21A              1.05       0.1        5.004      0.01665    0         
22A              1.05       0.1        5.004      0.01665    0         
23A              1.05       0.1        5.004      0.01665    0         
24A              1.05       0.1        5.004      0.01665    0         
25A              1.05       0.1        5.004      0.01665    0         
26A              1.05       0.1        5.004      0.01665    0         
26B              1.05       0.1        5.004      0.01665    0         
SC1              1.05       0.1        5.004      0.01665    0         
BS2              1.05       0.1        5.004      0.01665    0         
BS3              1.05       0.1        5.004      0.01665    0         
DR1              1.05       0.1        5.004      0.01665    0         
PS1              1.05       0.1        5.004      0.01665    0         
PS2              1.05       0.1        5.004      0.01665    0         
CCW1             1.05       0.1        5.004      0.01665    0         
CCW2             1.05       0.1        5.004      0.01665    0         
EA1              1.05       0.1        5.004      0.01665    0         
RC1              1.05       0.1        5.004      0.01665    0         
RC10             3.0        0.5        4          7          0         
31A              1.05       0.1        5.004      0.01665    0         
07A_new          1.05       0.1        5.004      0.01665    0         
07B_new          1.05       0.1        5.004      0.01665    0         
07C_new          1.05       0.1        5.004      0.01665    0         

[JUNCTIONS]
;;Name           Elevation  MaxDepth   InitDepth  SurDepth   Aponded   
;;-------------- ---------- ---------- ---------- ---------- ----------
MH-1000          4          12.79      0          0          0         
MH-1001          10.3       12         0          0          0         
MH-1002          3.98       13.05      0          0          0         
MH-1005          5.8        11.4       0          0          0         
MH-1007          3.95       12.33      0          0          0         
;	*	Morton	Street	to	Regulator	14
MH-1008          6.16       12         0          0          0         
MH-1009          5.63       10.94      0          0          0         
;	*	Chester	Creek	West	Interceptor
MH-1010          1.3        13         0          0          0         
MH-1011          2.17       16.01      0          0          0         
MH-1017          1.21       13.4       0          0          0         
MH-1023          2          13.06      0          0          0         
MH-1024          1.12       13.66      0          0          0         
MH-1027          1.07       14.07      0          0          0         
MH-1032          -5.24      21.05      0          0          0         
MH-1036          3.81       10.86      0          0          0         
MH-1041          8.42       12.2       0          0          0         
MH-1043          1.04       14.35      0          0          0         
MH-1049          15.44      5.71       0          0          0         
MH-1057          10.08      11.05      0          0          0         
;	*	East	4th	Street	to	Regulator	14
MH-1060          3.77       10.84      0          0          0         
MH-1062          44.77      10.8       0          0          0         
MH-1064          7.71       13.35      0          0          0         
MH-1067          16.85      9.38       0          0          0         
MH-107           93.48      13.3       0          0          0         
MH-1070          3.81       17.56      0          0          0         
MH-1075          0.98       14.82      0          0          0         
MH-1077          5.2        8.6        0          0          0         
MH-1085          -5.47      14.6       0          0          0         
MH-1090          0.93       15.28      0          0          0         
MH-1092          1.32       11.4       0          0          0         
MH-1095          12.93      11.8       0          0          0         
MH-1098          0.89       16.07      0          0          0         
MH-1098A         0.87       16.4       0          0          0         
MH-1104          11.44      11.76      0          0          0         
MH-1106          3.21       20         0          0          0         
;	*	West	7th	Street	Collector	to	Edgmont	Avenue	Interceptor
MH-1107          11.74      11.9       0          0          0         
MH-1108          3.2        19.99      0          0          0         
;	*	East	4th	Street	to	Regulator	14
MH-1109          2.47       11         0          0          0         
MH-1114          5.4        16.55      0          0          0         
MH-1119          0.93       9.74       0          0          0         
MH-1122          -5.31      16         0          0          0         
MH-1123          0.82       15.6       0          0          0         
MH-1126          2.94       11.75      0          0          0         
MH-1128          21.02      12.15      0          0          0         
MH-1130          2.25       21.5       0          0          0         
MH-1137          6.67       15.4       0          0          0         
MH-1138          24.98      12.4       0          0          0         
MH-1140          0.84       21.35      0          0          0         
MH-1141          12.69      10.25      0          0          0         
MH-1145          19.76      11.5       0          0          0         
MH-1147          12.69      10.4       0          0          0         
MH-1148          35.36      11.3       0          0          0         
;	*	West	8th	Street	Collector	to	Chester	Creek	West	Interceptor
MH-1150          18.89      6.55       0          0          0         
MH-1151          11.24      11.55      0          0          0         
MH-1154          0.27       18.4       0          0          0         
MH-1155          2.59       19.51      0          0          0         
MH-1158          9.53       13.3       0          0          0         
MH-1160          39.77      11.85      0          0          0         
MH-1161          0.39       19.29      0          0          0         
MH-1164          2.65       19.15      0          0          0         
MH-1165          -5.6       14.34      0          0          0         
MH-1167          5.6        10.35      0          0          0         
MH-1175          5.45       15.25      0          0          0         
MH-1178          9.14       10.7       0          0          0         
MH-1179          0.16       11.02      0          0          0         
MH-1181          19.14      10.3       0          0          0         
MH-1192          11.59      9.55       0          0          0         
;	*	Barclay	Street	to	Regulator	26
MH-1204          18.53      9.5        0          0          0         
MH-1208          2.6        21.7       0          0          0         
MH-1210          4.65       14.2       0          0          0         
MH-122           91.42      15         0          0          0         
MH-1224          18.2       8.7        0          0          0         
;	*	Woodrow	Street	Collector	to	Chester	Creek	West	Interceptor
MH-1225          13.46      9.2        0          0          0         
MH-1229          4.37       13.25      0          0          0         
MH-1233          -6.04      15.9       0          0          0         
MH-1239          20.76      9.55       0          0          0         
MH-124           89.01      15.9       0          0          0         
MH-1247          -0.09      20.09      0          0          0         
MH-1247A         -0.01      20.01      0          0          0         
MH-1251          23.31      10.7       0          0          0         
MH-1257          1.9        22.75      0          0          0         
MH-1259          14.32      10.8       0          0          0         
MH-1278          -0.22      20.15      0          0          0         
MH-1280          -6.84      16.3       0          0          0         
MH-1284          3.33       8.5        0          0          0         