[TITLE]
;;Project Title/Notes

[OPTIONS]
;;Option             Value
FLOW_UNITS           MGD
INFILTRATION         HORTON
FLOW_ROUTING         DYNWAVE
LINK_OFFSETS         DEPTH
MIN_SLOPE            0
ALLOW_PONDING        NO
SKIP_STEADY_STATE    NO

START_DATE           01/01/2002
START_TIME           00:00:00
REPORT_START_DATE    01/01/2002
REPORT_START_TIME    00:00:00
END_DATE             01/01/2002
END_TIME             00:00:00
SWEEP_START          01/01
SWEEP_END            12/31
DRY_DAYS             5.000000
REPORT_STEP          00:05:00
WET_STEP             01:00:00
DRY_STEP             23:00:00
ROUTING_STEP         0:05:00 

INERTIAL_DAMPING     NONE
NORMAL_FLOW_LIMITED  BOTH
FORCE_MAIN_EQUATION  H-W
VARIABLE_STEP        0.75
LENGTHENING_STEP     0
MIN_SURFAREA         12.557
MAX_TRIALS           8
HEAD_TOLERANCE       0.005
SYS_FLOW_TOL         5
LAT_FLOW_TOL         5
MINIMUM_STEP         0.5
THREADS              1

[EVAPORATION]
;;Data Source    Parameters
;;-------------- ----------------
CONSTANT         0.0
DRY_ONLY         NO

[RAINGAGES]
;;Name           Format    Interval SCF      Source    
;;-------------- --------- ------ ------ ----------
RG_SEWER_5YR-6HR-REV INTENSITY 0.250000 1.000000 TIMESERIES 5YR-6HR-REV     
UH_SEWER_BC22    INTENSITY 1.000000 1.000000 FILE       "-"              -          IN   
UH_SEWER_BC28A   INTENSITY 1.000000 1.000000 FILE       "-"              -          IN   
UH_SEWER_SC08    INTENSITY 1.000000 1.000000 FILE       "-"              -          IN   
UH_SEWER_SC26    INTENSITY 1.000000 1.000000 FILE       "-"              -          IN   

[SUBCATCHMENTS]
;;Name           Rain Gage        Outlet           Area     %Imperv  Width    %Slope   CurbLen  SnowPack        
;;-------------- ---------------- ---------------- -------- -------- -------- -------- -------- ----------------
SC_SEWER_BB1000  RG_SEWER_5YR-6HR-REV BB1000           28.450000 0.000000 1.000000 0.000000 0.000000                 
SC_SEWER_BB1002  RG_SEWER_5YR-6HR-REV BB1002           2.410000 0.000000 1.000000 0.000000 0.000000                 
SC_SEWER_BB1004  RG_SEWER_5YR-6HR-REV BB1004           18.390000 0.000000 1.000000 0.000000 0.000000                 
SC_SEWER_BB1006  RG_SEWER_5YR-6HR-REV BB1006           9.150000 0.750000 1.000000 0.000000 0.000000                 
SC_SEWER_BB1008  RG_SEWER_5YR-6HR-REV BB1008           18.770000 0.750000 1.000000 0.000000 0.000000                 
SC_SEWER_BB1010  RG_SEWER_5YR-6HR-REV BB1010           17.900000 0.750000 1.000000 0.000000 0.000000                 
SC_SEWER_BB1012  RG_SEWER_5YR-6HR-REV BB1012           30.700000 0.750000 1.000000 0.000000 0.000000                 
SC_SEWER_BB1014  RG_SEWER_5YR-6HR-REV BB1014           3.340000 0.750000 1.000000 0.000000 0.000000                 
SC_SEWER_BB1016  RG_SEWER_5YR-6HR-REV BB1016           75.180000 0.750000 1.000000 0.000000 0.000000                 
SC_SEWER_BB1018  RG_SEWER_5YR-6HR-REV BB1018           5.660000 0.000000 1.000000 0.000000 0.000000                 
SC_SEWER_BB1020  RG_SEWER_5YR-6HR-REV BB1020           11.360000 0.000000 1.000000 0.000000 0.000000                 
SC_SEWER_BB1022  RG_SEWER_5YR-6HR-REV BB1022           19.070000 0.000000 1.000000 0.000000 0.000000                 
SC_SEWER_BB1024  RG_SEWER_5YR-6HR-REV BB1024           6.180000 0.000000 1.000000 0.000000 0.000000                 
SC_SEWER_BB1026  RG_SEWER_5YR-6HR-REV BB1026           23.750000 0.000000 1.000000 0.000000 0.000000                 
SC_SEWER_BB1028  RG_SEWER_5YR-6HR-REV BB1028           11.930000 0.000000 1.000000 0.000000 0.000000                 
SC_SEWER_BB1030  RG_SEWER_5YR-6HR-REV BB1030           10.410000 0.000000 1.000000 0.000000 0.000000                 
SC_SEWER_BB1032  RG_SEWER_5YR-6HR-REV BB1032           13.390000 0.000000 1.000000 0.000000 0.000000                 
SC_SEWER_BB1034  RG_SEWER_5YR-6HR-REV BB1034           7.360000 0.000000 1.000000 0.000000 0.000000                 
SC_SEWER_BB1036  RG_SEWER_5YR-6HR-REV BB1036           5.590000 0.000000 1.000000 0.000000 0.000000                 
SC_SEWER_BB1038  RG_SEWER_5YR-6HR-REV BB1038           6.170000 0.000000 1.000000 0.000000 0.000000                 
SC_SEWER_BB1040  RG_SEWER_5YR-6HR-REV BB1040           10.420000 0.000000 1.000000 0.000000 0.000000                 
SC_SEWER_BB1042  RG_SEWER_5YR-6HR-REV BB1042           17.490000 0.000000 1.000000 0.000000 0.000000                 
SC_SEWER_BB1044  RG_SEWER_5YR-6HR-REV BB1044           4.440000 0.000000 1.000000 0.000000 0.000000                 
SC_SEWER_BB1046  RG_SEWER_5YR-6HR-REV BB1046           5.020000 0.000000 1.000000 0.000000 0.000000                 
SC_SEWER_BB1048  RG_SEWER_5YR-6HR-REV BB1048           11.210000 0.000000 1.000000 0.000000 0.000000                 
SC_SEWER_BB1050  RG_SEWER_5YR-6HR-REV BB1050           7.930000 0.000000 1.000000 0.000000 0.000000                 
SC_SEWER_BB1052  RG_SEWER_5YR-6HR-REV BB1052           5.920000 0.000000 1.000000 0.000000 0.000000                 
SC_SEWER_BB1054  RG_SEWER_5YR-6HR-REV BB1054           15.830000 0.000000 1.000000 0.000000 0.000000                 
SC_SEWER_BB1056  RG_SEWER_5YR-6HR-REV BB1056           14.770000 0.000000 1.000000 0.000000 0.000000                 
SC_SEWER_BB1058  RG_SEWER_5YR-6HR-REV BB1058           1.480000 0.000000 1.000000 0.000000 0.000000                 
SC_SEWER_BB1060  RG_SEWER_5YR-6HR-REV BB1060           6.050000 0.000000 1.000000 0.000000 0.000000                 
SC_SEWER_BB1062  RG_SEWER_5YR-6HR-REV BB1062           51.300000 0.000000 1.000000 0.000000 0.000000                 
SC_SEWER_BB1064  RG_SEWER_5YR-6HR-REV BB1064           15.400000 0.000000 1.000000 0.000000 0.000000                 
SC_SEWER_BB1066  RG_SEWER_5YR-6HR-REV BB1066           12.120000 0.000000 1.000000 0.000000 0.000000                 
SC_SEWER_BB1068  RG_SEWER_5YR-6HR-REV BB1068           7.260000 0.000000 1.000000 0.000000 0.000000                 
SC_SEWER_BB1070  RG_SEWER_5YR-6HR-REV BB1070           4.890000 0.000000 1.000000 0.000000 0.000000                 
SC_SEWER_BB1072  RG_SEWER_5YR-6HR-REV BB1072           34.380000 0.000000 1.000000 0.000000 0.000000                 
SC_SEWER_BB1074  RG_SEWER_5YR-6HR-REV BB1074           6.260000 0.000000 1.000000 0.000000 0.000000                 
SC_SEWER_BB1076  RG_SEWER_5YR-6HR-REV BB1076           4.470000 0.000000 1.000000 0.000000 0.000000                 
SC_SEWER_BB1078  RG_SEWER_5YR-6HR-REV BB1078           3.630000 0.000000 1.000000 0.000000 0.000000                 
SC_SEWER_BB1080  RG_SEWER_5YR-6HR-REV BB1080           23.140000 0.000000 1.000000 0.000000 0.000000                 
SC_SEWER_BB1082  RG_SEWER_5YR-6HR-REV BB1082           37.760000 0.000000 1.000000 0.000000 0.000000                 
SC_SEWER_BB1084  RG_SEWER_5YR-6HR-REV BB1084           10.060000 0.000000 1.000000 0.000000 0.000000                 
SC_SEWER_BB1086  RG_SEWER_5YR-6HR-REV BB1086           16.320000 0.000000 1.000000 0.000000 0.000000                 
SC_SEWER_BB1088  RG_SEWER_5YR-6HR-REV BB1088           15.140000 0.000000 1.000000 0.000000 0.000000                 
SC_SEWER_BB1090  RG_SEWER_5YR-6HR-REV BB1090           6.940000 0.750000 1.000000 0.000000 0.000000                 
SC_SEWER_BB1092  RG_SEWER_5YR-6HR-REV BB1092           32.990000 0.000000 1.000000 0.000000 0.000000                 
SC_SEWER_BB1094  RG_SEWER_5YR-6HR-REV BB1094           37.200000 0.000000 1.000000 0.000000 0.000000                 
SC_SEWER_BB1096  RG_SEWER_5YR-6HR-REV BB1096           5.950000 0.000000 1.000000 0.000000 0.000000                 
SC_SEWER_BRC1002 RG_SEWER_5YR-6HR-REV BRC1002          131.840000 0.750000 1.000000 0.000000 0.000000                 
SC_SEWER_BRC1012 RG_SEWER_5YR-6HR-REV BRC1012          16.000000 0.750000 1.000000 0.000000 0.000000                 
SC_SEWER_BUC1000 RG_SEWER_5YR-6HR-REV BUC1000          47.280000 0.750000 1.000000 0.000000 0.000000                 
SC_SEWER_BUC1002 RG_SEWER_5YR-6HR-REV BUC1002          12.830000 0.750000 1.000000 0.000000 0.000000                 
SC_SEWER_BUC1004 RG_SEWER_5YR-6HR-REV BUC1004          10.140000 0.750000 1.000000 0.000000 0.000000                 
SC_SEWER_BUC1006 RG_SEWER_5YR-6HR-REV BUC1006          40.130000 0.750000 1.000000 0.000000 0.000000                 
SC_SEWER_BUC1008 RG_SEWER_5YR-6HR-REV BUC1008          51.270000 0.750000 1.000000 0.000000 0.000000                 
SC_SEWER_BUC1010 RG_SEWER_5YR-6HR-REV BUC1010          51.400000 0.750000 1.000000 0.000000 0.000000                 
SC_SEWER_BUC1012 RG_SEWER_5YR-6HR-REV BUC1012          42.180000 0.750000 1.000000 0.000000 0.000000                 
SC_SEWER_BUC1014 RG_SEWER_5YR-6HR-REV BUC1014          65.400000 0.750000 1.000000 0.000000 0.000000                 
SC_SEWER_BUC1016 RG_SEWER_5YR-6HR-REV BUC1016          21.300000 0.750000 1.000000 0.000000 0.000000                 
SC_SEWER_BUC1018 RG_SEWER_5YR-6HR-REV BUC1018          22.960000 0.750000 1.000000 0.000000 0.000000                 
SC_SEWER_BUC1020 RG_SEWER_5YR-6HR-REV BUC1020          41.160000 0.750000 1.000000 0.000000 0.000000                 
SC_SEWER_BUC1022 RG_SEWER_5YR-6HR-REV BUC1022          9.780000 0.750000 1.000000 0.000000 0.000000                 
SC_SEWER_BUC1024 RG_SEWER_5YR-6HR-REV BUC1024          6.330000 0.750000 1.000000 0.000000 0.000000                 
SC_SEWER_BUC1026 RG_SEWER_5YR-6HR-REV BUC1026          4.650000 0.750000 1.000000 0.000000 0.000000                 
SC_SEWER_BUC1028 RG_SEWER_5YR-6HR-REV BUC1028          3.950000 0.750000 1.000000 0.000000 0.000000                 
SC_SEWER_BUC1030 RG_SEWER_5YR-6HR-REV BUC1030          3.000000 0.750000 1.000000 0.000000 0.000000                 
SC_SEWER_BUC1032 RG_SEWER_5YR-6HR-REV BUC1032          2.620000 0.750000 1.000000 0.000000 0.000000                 
SC_SEWER_BUC1034 RG_SEWER_5YR-6HR-REV BUC1034          2.840000 0.750000 1.000000 0.000000 0.000000                 
SC_SEWER_BUC1044 RG_SEWER_5YR-6HR-REV BUC1044          34.410000 0.750000 1.000000 0.000000 0.000000                 
SC_SEWER_BUC1048 RG_SEWER_5YR-6HR-REV BUC1048          18.190000 0.750000 1.000000 0.000000 0.000000                 
SC_SEWER_BUC1052 RG_SEWER_5YR-6HR-REV BUC1052          0.350000 0.750000 1.000000 0.000000 0.000000                 
SC_SEWER_BUC1054 RG_SEWER_5YR-6HR-REV BUC1054          6.840000 0.750000 1.000000 0.000000 0.000000                 
SC_SEWER_BUC1056 RG_SEWER_5YR-6HR-REV BUC1056          36.810000 0.750000 1.000000 0.000000 0.000000                 
SC_SEWER_BUC1058 RG_SEWER_5YR-6HR-REV BUC1058          9.910000 0.750000 1.000000 0.000000 0.000000                 
SC_SEWER_BUC1062 RG_SEWER_5YR-6HR-REV BUC1062          1.130000 0.000000 1.000000 0.000000 0.000000                 
SC_SEWER_BUC1066 RG_SEWER_5YR-6HR-REV BUC1066          11.970000 0.000000 1.000000 0.000000 0.000000                 
SC_SEWER_BUC1070 RG_SEWER_5YR-6HR-REV BUC1070          4.310000 0.000000 1.000000 0.000000 0.000000                 
SC_SEWER_BUC1076 RG_SEWER_5YR-6HR-REV BUC1076          18.400000 0.000000 1.000000 0.000000 0.000000                 
SC_SEWER_BUC1078 RG_SEWER_5YR-6HR-REV BUC1078          24.370000 0.000000 1.000000 0.000000 0.000000                 
SC_SEWER_BUC1080 RG_SEWER_5YR-6HR-REV BUC1080          30.160000 0.000000 1.000000 0.000000 0.000000                 
SC_SEWER_BUC1082 RG_SEWER_5YR-6HR-REV BUC1082          60.440000 0.000000 1.000000 0.000000 0.000000                 
SC_SEWER_BUC1084 RG_SEWER_5YR-6HR-REV BUC1084          58.880000 0.000000 1.000000 0.000000 0.000000                 
SC_SEWER_BUC1088 RG_SEWER_5YR-6HR-REV BUC1088          4.310000 0.000000 1.000000 0.000000 0.000000                 
SC_SEWER_BUC1090 RG_SEWER_5YR-6HR-REV BUC1090          45.710000 0.000000 1.000000 0.000000 0.000000                 
SC_SEWER_BUC1092 RG_SEWER_5YR-6HR-REV BUC1092          14.680000 0.000000 1.000000 0.000000 0.000000                 
SC_SEWER_BUC1094 RG_SEWER_5YR-6HR-REV BUC1094          33.800000 0.000000 1.000000 0.000000 0.000000                 
SC_SEWER_BUC1096 RG_SEWER_5YR-6HR-REV BUC1096          61.240000 0.000000 1.000000 0.000000 0.000000                 
SC_SEWER_BUC1098 RG_SEWER_5YR-6HR-REV BUC1098          59.240000 0.000000 1.000000 0.000000 0.000000                 
SC_SEWER_BUC1106 RG_SEWER_5YR-6HR-REV BUC1106          13.380000 0.000000 1.000000 0.000000 0.000000                 
SC_SEWER_BUC1108 RG_SEWER_5YR-6HR-REV BUC1108          36.150000 0.000000 1.000000 0.000000 0.000000                 
SC_SEWER_BUC1110 RG_SEWER_5YR-6HR-REV BUC1110          8.050000 0.000000 1.000000 0.000000 0.000000                 
SC_SEWER_BUC1112 RG_SEWER_5YR-6HR-REV BUC1112          45.770000 0.000000 1.000000 0.000000 0.000000                 
SC_SEWER_BUC1114 RG_SEWER_5YR-6HR-REV BUC1114          3.240000 0.000000 1.000000 0.000000 0.000000                 
SC_SEWER_BUC1116 RG_SEWER_5YR-6HR-REV BUC1116          32.340000 0.000000 1.000000 0.000000 0.000000                 
SC_SEWER_BUC1118 RG_SEWER_5YR-6HR-REV BUC1118          26.540000 0.000000 1.000000 0.000000 0.000000                 
SC_SEWER_BUC1122 RG_SEWER_5YR-6HR-REV BUC1122          30.790000 0.000000 1.000000 0.000000 0.000000                 
SC_SEWER_BUC1124 RG_SEWER_5YR-6HR-REV BUC1124          61.200000 0.000000 1.000000 0.000000 0.000000                 
SC_SEWER_BUC1126 RG_SEWER_5YR-6HR-REV BUC1126          78.370000 0.000000 1.000000 0.000000 0.000000                 
SC_SEWER_BUC1128 RG_SEWER_5YR-6HR-REV BUC1128          75.620000 0.000000 1.000000 0.000000 0.000000                 
SC_SEWER_BUC1130 RG_SEWER_5YR-6HR-REV BUC1130          87.400000 0.000000 1.000000 0.000000 0.000000                 
SC_SEWER_BUC1132 RG_SEWER_5YR-6HR-REV BUC1132          65.120000 0.000000 1.000000 0.000000 0.000000                 
SC_SEWER_BUC1134 RG_SEWER_5YR-6HR-REV BUC1134          120.660000 0.000000 1.000000 0.000000 0.000000                 
SC_SEWER_BUC1138 RG_SEWER_5YR-6HR-REV BUC1138          173.260000 0.750000 1.000000 0.000000 0.000000                 
SC_SEWER_BUC1140 RG_SEWER_5YR-6HR-REV BUC1140          71.580000 0.000000 1.000000 0.000000 0.000000                 
SC_SEWER_BUC1142 RG_SEWER_5YR-6HR-REV BUC1142          9.290000 0.750000 1.000000 0.000000 0.000000                 
SC_SEWER_BUC1144 RG_SEWER_5YR-6HR-REV BUC1144          21.420000 0.750000 1.000000 0.000000 0.000000                 
SC_SEWER_BUC1146 RG_SEWER_5YR-6HR-REV BUC1146          152.420000 0.750000 1.000000 0.000000 0.000000                 
SC_SEWER_BUC1148 RG_SEWER_5YR-6HR-REV BUC1148          30.540000 0.750000 1.000000 0.000000 0.000000                 
SC_SEWER_BUC1150 RG_SEWER_5YR-6HR-REV BUC1150          234.170000 0.000000 1.000000 0.000000 0.000000                 
SC_SEWER_BUC1152 RG_SEWER_5YR-6HR-REV BUC1152          79.790000 0.000000 1.000000 0.000000 0.000000                 
SC_SEWER_BUC1154 RG_SEWER_5YR-6HR-REV BUC1154          97.400000 0.000000 1.000000 0.000000 0.000000                 
SC_SEWER_BUC1156 RG_SEWER_5YR-6HR-REV BUC1156          4.890000 0.000000 1.000000 0.000000 0.000000                 
SC_SEWER_BUC1158 RG_SEWER_5YR-6HR-REV BUC1158          26.400000 0.750000 1.000000 0.000000 0.000000                 
SC_SEWER_BUC1160 RG_SEWER_5YR-6HR-REV BUC1160          88.440000 0.750000 1.000000 0.000000 0.000000                 
SC_SEWER_BUC1162 RG_SEWER_5YR-6HR-REV BUC1162          8.390000 0.750000 1.000000 0.000000 0.000000                 
SC_SEWER_BUC1164 RG_SEWER_5YR-6HR-REV BUC1164          73.330000 0.000000 1.000000 0.000000 0.000000                 
SC_SEWER_BUC1166 RG_SEWER_5YR-6HR-REV BUC1166          43.660000 0.000000 1.000000 0.000000 0.000000                 
SC_SEWER_BUC1168 RG_SEWER_5YR-6HR-REV BUC1168          76.420000 0.000000 1.000000 0.000000 0.000000                 
SC_SEWER_BUC1172 RG_SEWER_5YR-6HR-REV BUC1172          37.780000 0.750000 1.000000 0.000000 0.000000                 
SC_SEWER_BUC1174 RG_SEWER_5YR-6HR-REV BUC1174          12.570000 0.750000 1.000000 0.000000 0.000000                 
SC_SEWER_BUC1176 RG_SEWER_5YR-6HR-REV BUC1176          7.050000 0.750000 1.000000 0.000000 0.000000                 
SC_SEWER_BUC1178 RG_SEWER_5YR-6HR-REV BUC1178          12.990000 0.750000 1.000000 0.000000 0.000000                 
SC_SEWER_BUC1180 RG_SEWER_5YR-6HR-REV BUC1180          3.480000 0.750000 1.000000 0.000000 0.000000                 
SC_SEWER_BUC1182 RG_SEWER_5YR-6HR-REV BUC1182          12.030000 0.750000 1.000000 0.000000 0.000000                 
SC_SEWER_BUC1184 RG_SEWER_5YR-6HR-REV BUC1184          4.460000 0.750000 1.000000 0.000000 0.000000                 
SC_SEWER_BUC1186 RG_SEWER_5YR-6HR-REV BUC1186          1.700000 0.750000 1.000000 0.000000 0.000000                 
SC_SEWER_BUC1188 RG_SEWER_5YR-6HR-REV BUC1188          3.260000 0.750000 1.000000 0.000000 0.000000                 
SC_SEWER_BUC1190 RG_SEWER_5YR-6HR-REV BUC1190          7.890000 0.750000 1.000000 0.000000 0.000000                 
SC_SEWER_BUC1192 RG_SEWER_5YR-6HR-REV BUC1192          1.850000 0.750000 1.000000 0.000000 0.000000                 
SC_SEWER_BUC1194 RG_SEWER_5YR-6HR-REV BUC1194          0.160000 0.750000 1.000000 0.000000 0.000000                 
SC_SEWER_BUC1226 RG_SEWER_5YR-6HR-REV BUC1226          10.930000 0.750000 1.000000 0.000000 0.000000                 
SC_SEWER_BUC1228 RG_SEWER_5YR-6HR-REV BUC1228          9.400000 0.750000 1.000000 0.000000 0.000000                 
SC_SEWER_BUC1230 RG_SEWER_5YR-6HR-REV BUC1230          9.810000 0.750000 1.000000 0.000000 0.000000                 
SC_SEWER_BUC1232 RG_SEWER_5YR-6HR-REV BUC1232          3.840000 0.750000 1.000000 0.000000 0.000000                 
SC_SEWER_BUC1234 RG_SEWER_5YR-6HR-REV BUC1234          22.170000 0.750000 1.000000 0.000000 0.000000                 
SC_SEWER_BUC1236 RG_SEWER_5YR-6HR-REV BUC1236          5.190000 0.750000 1.000000 0.000000 0.000000                 
SC_SEWER_BUC1238 RG_SEWER_5YR-6HR-REV BUC1238          0.840000 0.750000 1.000000 0.000000 0.000000                 
SC_SEWER_BUC1240 RG_SEWER_5YR-6HR-REV BUC1240          43.650000 0.750000 1.000000 0.000000 0.000000                 
SC_SEWER_BUC1242 RG_SEWER_5YR-6HR-REV BUC1242          8.010000 0.750000 1.000000 0.000000 0.000000                 
SC_SEWER_BUC1244 RG_SEWER_5YR-6HR-REV BUC1244          0.370000 0.750000 1.000000 0.000000 0.000000                 
SC_SEWER_BUC1246 RG_SEWER_5YR-6HR-REV BUC1246          3.790000 0.750000 1.000000 0.000000 0.000000                 
SC_SEWER_BUC1248 RG_SEWER_5YR-6HR-REV BUC1248          2.790000 0.750000 1.000000 0.000000 0.000000                 
SC_SEWER_BUC1250 RG_SEWER_5YR-6HR-REV BUC1250          6.310000 0.750000 1.000000 0.000000 0.000000                 
SC_SEWER_BUC1252 RG_SEWER_5YR-6HR-REV BUC1252          11.830000 0.750000 1.000000 0.000000 0.000000                 
SC_SEWER_BUC1300 RG_SEWER_5YR-6HR-REV BUC1300          20.170000 0.750000 1.000000 0.000000 0.000000                 
SC_SEWER_BUC1302 RG_SEWER_5YR-6HR-REV BUC1302          12.730000 0.750000 1.000000 0.000000 0.000000                 
SC_SEWER_BUC1304 RG_SEWER_5YR-6HR-REV BUC1304          22.420000 0.750000 1.000000 0.000000 0.000000                 
SC_SEWER_BUC1308 RG_SEWER_5YR-6HR-REV BUC1308          25.020000 0.750000 1.000000 0.000000 0.000000                 
SC_SEWER_BUC1310 RG_SEWER_5YR-6HR-REV BUC1310          24.640000 0.750000 1.000000 0.000000 0.000000                 
SC_SEWER_CL1000  RG_SEWER_5YR-6HR-REV CL1000           11.120000 0.750000 1.000000 0.000000 0.000000                 
SC_SEWER_CL1002  RG_SEWER_5YR-6HR-REV CL1002           2.680000 0.750000 1.000000 0.000000 0.000000                 
SC_SEWER_CL1004  RG_SEWER_5YR-6HR-REV CL1004           2.640000 0.750000 1.000000 0.000000 0.000000                 
SC_SEWER_CL1006  RG_SEWER_5YR-6HR-REV CL1006           9.120000 0.750000 1.000000 0.000000 0.000000                 
SC_SEWER_CL1008  RG_SEWER_5YR-6HR-REV CL1008           93.250000 0.750000 1.000000 0.000000 0.000000                 
SC_SEWER_CL1010  RG_SEWER_5YR-6HR-REV CL1010           9.800000 0.750000 1.000000 0.000000 0.000000                 
SC_SEWER_CL1012  RG_SEWER_5YR-6HR-REV CL1012           22.310000 0.750000 1.000000 0.000000 0.000000                 
SC_SEWER_CL1014  RG_SEWER_5YR-6HR-REV CL1014           28.860000 0.750000 1.000000 0.000000 0.000000                 
SC_SEWER_CL1016  RG_SEWER_5YR-6HR-REV CL1016           101.810000 0.750000 1.000000 0.000000 0.000000                 
SC_SEWER_CL1020  RG_SEWER_5YR-6HR-REV CL1020           3.430000 0.000000 1.000000 0.000000 0.000000                 
SC_SEWER_CL1022  RG_SEWER_5YR-6HR-REV CL1022           2.000000 0.000000 1.000000 0.000000 0.000000                 
SC_SEWER_CL1024  RG_SEWER_5YR-6HR-REV CL1024           1.080000 0.000000 1.000000 0.000000 0.000000                 
SC_SEWER_CL1026  RG_SEWER_5YR-6HR-REV CL1026           4.170000 0.000000 1.000000 0.000000 0.000000                 
SC_SEWER_CL1028  RG_SEWER_5YR-6HR-REV CL1028           2.780000 0.000000 1.000000 0.000000 0.000000                 
SC_SEWER_CL1030  RG_SEWER_5YR-6HR-REV CL1030           1.090000 0.000000 1.000000 0.000000 0.000000                 
SC_SEWER_CL1032  RG_SEWER_5YR-6HR-REV CL1032           0.620000 0.000000 1.000000 0.000000 0.000000                 
SC_SEWER_CL1034  RG_SEWER_5YR-6HR-REV CL1034           4.060000 0.000000 1.000000 0.000000 0.000000                 
SC_SEWER_CL1036  RG_SEWER_5YR-6HR-REV CL1036           1.870000 0.000000 1.000000 0.000000 0.000000                 
SC_SEWER_CL1038  RG_SEWER_5YR-6HR-REV CL1038           0.980000 0.000000 1.000000 0.000000 0.000000                 
SC_SEWER_CL1040  RG_SEWER_5YR-6HR-REV CL1040           1.130000 0.000000 1.000000 0.000000 0.000000                 
SC_SEWER_CL1042  RG_SEWER_5YR-6HR-REV CL1042           0.900000 0.000000 1.000000 0.000000 0.000000                 
SC_SEWER_CL1044  RG_SEWER_5YR-6HR-REV CL1044           4.880000 0.000000 1.000000 0.000000 0.000000                 
SC_SEWER_CL1046  RG_SEWER_5YR-6HR-REV CL1046           0.840000 0.000000 1.000000 0.000000 0.000000                 
SC_SEWER_CL1048  RG_SEWER_5YR-6HR-REV CL1048           2.130000 0.000000 1.000000 0.000000 0.000000                 
SC_SEWER_CL1050  RG_SEWER_5YR-6HR-REV CL1050           4.530000 0.000000 1.000000 0.000000 0.000000                 
SC_SEWER_CL1052  RG_SEWER_5YR-6HR-REV CL1052           4.240000 0.000000 1.000000 0.000000 0.000000                 
SC_SEWER_CL1054  RG_SEWER_5YR-6HR-REV CL1054           2.220000 0.000000 1.000000 0.000000 0.000000                 
SC_SEWER_CL1058  RG_SEWER_5YR-6HR-REV CL1058           4.560000 0.000000 1.000000 0.000000 0.000000                 
SC_SEWER_CL1060  RG_SEWER_5YR-6HR-REV CL1060           14.050000 0.000000 1.000000 0.000000 0.000000                 
SC_SEWER_CL1062  RG_SEWER_5YR-6HR-REV CL1062           3.120000 0.000000 1.000000 0.000000 0.000000                 
SC_SEWER_CL1064  RG_SEWER_5YR-6HR-REV CL1064           6.130000 0.000000 1.000000 0.000000 0.000000                 
SC_SEWER_CL1068  RG_SEWER_5YR-6HR-REV CL1068           3.540000 0.000000 1.000000 0.000000 0.000000                 
SC_SEWER_CL1070  RG_SEWER_5YR-6HR-REV CL1070           11.150000 0.000000 1.000000 0.000000 0.000000                 
SC_SEWER_CL1072  RG_SEWER_5YR-6HR-REV CL1072           14.840000 0.000000 1.000000 0.000000 0.000000                 
SC_SEWER_CL1074  RG_SEWER_5YR-6HR-REV CL1074           9.860000 0.000000 1.000000 0.000000 0.000000                 
SC_SEWER_CL1076  RG_SEWER_5YR-6HR-REV CL1076           15.630000 0.000000 1.000000 0.000000 0.000000                 
SC_SEWER_CL1078  RG_SEWER_5YR-6HR-REV CL1078           26.290000 0.750000 1.000000 0.000000 0.000000                 
SC_SEWER_CL1080  RG_SEWER_5YR-6HR-REV CL1080           17.210000 0.000000 1.000000 0.000000 0.000000                 
SC_SEWER_CL1090  RG_SEWER_5YR-6HR-REV CL1090           68.100000 0.750000 1.000000 0.000000 0.000000                 
SC_SEWER_CL1092  RG_SEWER_5YR-6HR-REV CL1092           0.700000 0.750000 1.000000 0.000000 0.000000                 
SC_SEWER_CL1094  RG_SEWER_5YR-6HR-REV CL1094           31.880000 0.750000 1.000000 0.000000 0.000000                 
SC_SEWER_LB1000  RG_SEWER_5YR-6HR-REV LB1000           86.790000 0.750000 1.000000 0.000000 0.000000                 
SC_SEWER_LB1004  RG_SEWER_5YR-6HR-REV LB1004           77.180000 0.750000 1.000000 0.000000 0.000000                 
SC_SEWER_LBC1018 RG_SEWER_5YR-6HR-REV LBC1018          36.210000 0.750000 1.000000 0.000000 0.000000                 
SC_SEWER_LBC3020 RG_SEWER_5YR-6HR-REV LBC3020          16.130000 0.000000 1.000000 0.000000 0.000000                 
SC_SEWER_LS1000  RG_SEWER_5YR-6HR-REV LS1000           59.220000 0.000000 1.000000 0.000000 0.000000                 
SC_SEWER_LS1010  RG_SEWER_5YR-6HR-REV LS1010           3.460000 0.000000 1.000000 0.000000 0.000000                 
SC_SEWER_LS1012  RG_SEWER_5YR-6HR-REV LS1012           7.120000 0.000000 1.000000 0.000000 0.000000                 
SC_SEWER_LS1014  RG_SEWER_5YR-6HR-REV LS1014           4.840000 0.000000 1.000000 0.000000 0.000000                 
SC_SEWER_LS1016  RG_SEWER_5YR-6HR-REV LS1016           2.420000 0.000000 1.000000 0.000000 0.000000                 
SC_SEWER_LS1018  RG_SEWER_5YR-6HR-REV LS1018           1.180000 0.000000 1.000000 0.000000 0.000000                 
SC_SEWER_LS1020  RG_SEWER_5YR-6HR-REV LS1020           5.290000 0.000000 1.000000 0.000000 0.000000                 
SC_SEWER_LS1022  RG_SEWER_5YR-6HR-REV LS1022           3.270000 0.000000 1.000000 0.000000 0.000000                 
SC_SEWER_LS1024  RG_SEWER_5YR-6HR-REV LS1024           0.810000 0.000000 1.000000 0.000000 0.000000                 
SC_SEWER_LS1026  RG_SEWER_5YR-6HR-REV LS1026           7.380000 0.000000 1.000000 0.000000 0.000000                 
SC_SEWER_LS1028  RG_SEWER_5YR-6HR-REV LS1028           1.330000 0.000000 1.000000 0.000000 0.000000                 
SC_SEWER_LS1030  RG_SEWER_5YR-6HR-REV LS1030           10.880000 0.000000 1.000000 0.000000 0.000000                 
SC_SEWER_LS1032  RG_SEWER_5YR-6HR-REV LS1032           2.210000 0.000000 1.000000 0.000000 0.000000                 
SC_SEWER_LS1034  RG_SEWER_5YR-6HR-REV LS1034           0.990000 0.000000 1.000000 0.000000 0.000000                 
SC_SEWER_LS1036  RG_SEWER_5YR-6HR-REV LS1036           12.980000 0.000000 1.000000 0.000000 0.000000                 
SC_SEWER_LS1038  RG_SEWER_5YR-6HR-REV LS1038           6.860000 0.000000 1.000000 0.000000 0.000000                 
SC_SEWER_LS1040  RG_SEWER_5YR-6HR-REV LS1040           21.620000 0.000000 1.000000 0.000000 0.000000                 
SC_SEWER_LS1042  RG_SEWER_5YR-6HR-REV LS1042           12.670000 0.000000 1.000000 0.000000 0.000000                 
SC_SEWER_LS1044  RG_SEWER_5YR-6HR-REV LS1044           22.950000 0.000000 1.000000 0.000000 0.000000                 
SC_SEWER_LS1046  RG_SEWER_5YR-6HR-REV LS1046           4.330000 0.000000 1.000000 0.000000 0.000000                 
SC_SEWER_LS1048  RG_SEWER_5YR-6HR-REV LS1048           72.170000 0.000000 1.000000 0.000000 0.000000                 
SC_SEWER_LS1050  RG_SEWER_5YR-6HR-REV LS1050           6.770000 0.000000 1.000000 0.000000 0.000000                 
SC_SEWER_LS1052  RG_SEWER_5YR-6HR-REV LS1052           3.450000 0.000000 1.000000 0.000000 0.000000                 
SC_SEWER_LS1054  RG_SEWER_5YR-6HR-REV LS1054           2.650000 0.000000 1.000000 0.000000 0.000000                 
SC_SEWER_LS1056  RG_SEWER_5YR-6HR-REV LS1056           7.380000 0.000000 1.000000 0.000000 0.000000                 
SC_SEWER_LS1058  RG_SEWER_5YR-6HR-REV LS1058           10.570000 0.000000 1.000000 0.000000 0.000000                 
SC_SEWER_LS1060  RG_SEWER_5YR-6HR-REV LS1060           5.710000 0.000000 1.000000 0.000000 0.000000                 
SC_SEWER_LS1062  RG_SEWER_5YR-6HR-REV LS1062           5.740000 0.000000 1.000000 0.000000 0.000000                 
SC_SEWER_LS1064  RG_SEWER_5YR-6HR-REV LS1064           3.480000 0.000000 1.000000 0.000000 0.000000                 
SC_SEWER_LS1066  RG_SEWER_5YR-6HR-REV LS1066           8.290000 0.000000 1.000000 0.000000 0.000000                 
SC_SEWER_LS1068  RG_SEWER_5YR-6HR-REV LS1068           8.940000 0.000000 1.000000 0.000000 0.000000                 
SC_SEWER_LS1070  RG_SEWER_5YR-6HR-REV LS1070           6.630000 0.000000 1.000000 0.000000 0.000000                 
SC_SEWER_LS1072  RG_SEWER_5YR-6HR-REV LS1072           1.830000 0.000000 1.000000 0.000000 0.000000                 
SC_SEWER_LS1074  RG_SEWER_5YR-6HR-REV LS1074           0.930000 0.000000 1.000000 0.000000 0.000000                 
SC_SEWER_LS1076  RG_SEWER_5YR-6HR-REV LS1076           9.880000 0.000000 1.000000 0.000000 0.000000                 
SC_SEWER_LS1078  RG_SEWER_5YR-6HR-REV LS1078           2.070000 0.000000 1.000000 0.000000 0.000000                 
SC_SEWER_LS1082  RG_SEWER_5YR-6HR-REV LS1082           1.790000 0.000000 1.000000 0.000000 0.000000                 
SC_SEWER_LS1084  RG_SEWER_5YR-6HR-REV LS1084           6.510000 0.000000 1.000000 0.000000 0.000000                 
SC_SEWER_LS1086  RG_SEWER_5YR-6HR-REV LS1086           7.590000 0.000000 1.000000 0.000000 0.000000                 
SC_SEWER_LS1088  RG_SEWER_5YR-6HR-REV LS1088           6.330000 0.000000 1.000000 0.000000 0.000000                 
SC_SEWER_LS1090  RG_SEWER_5YR-6HR-REV LS1090           4.900000 0.000000 1.000000 0.000000 0.000000                 
SC_SEWER_LS1092  RG_SEWER_5YR-6HR-REV LS1092           5.350000 0.000000 1.000000 0.000000 0.000000                 
SC_SEWER_LS1094  RG_SEWER_5YR-6HR-REV LS1094           3.440000 0.000000 1.000000 0.000000 0.000000                 
SC_SEWER_LS1096  RG_SEWER_5YR-6HR-REV LS1096           5.920000 0.000000 1.000000 0.000000 0.000000                 