[TITLE]
;;Project Title/Notes
2-Existing

[OPTIONS]
;;Option             Value
FLOW_UNITS           CMS
INFILTRATION         HORTON
FLOW_ROUTING         DYNWAVE
LINK_OFFSETS         DEPTH
MIN_SLOPE            0
ALLOW_PONDING        YES
SKIP_STEADY_STATE    NO

IGNORE_SNOWMELT      YES
IGNORE_GROUNDWATER   YES
IGNORE_QUALITY       YES
START_DATE           05/28/2013
START_TIME           00:00:00
REPORT_START_DATE    05/28/2013
REPORT_START_TIME    00:00:00
END_DATE             05/28/2013
END_TIME             23:55:00
SWEEP_START          01/01
SWEEP_END            12/31
DRY_DAYS             0
REPORT_STEP          00:05:00
WET_STEP             00:05:00
DRY_STEP             00:05:00
ROUTING_STEP         0:00:05 

INERTIAL_DAMPING     PARTIAL
NORMAL_FLOW_LIMITED  BOTH
FORCE_MAIN_EQUATION  H-W
VARIABLE_STEP        0.75
LENGTHENING_STEP     0
MIN_SURFAREA         0
MAX_TRIALS           0
HEAD_TOLERANCE       0
SYS_FLOW_TOL         5
LAT_FLOW_TOL         5
MINIMUM_STEP         0.5
THREADS              1

[EVAPORATION]
;;Data Source    Parameters
;;-------------- ----------------
CONSTANT         0
DRY_ONLY         NO

[RAINGAGES]
;;Name           Format    Interval SCF      Source    
;;-------------- --------- ------ ------ ----------
100yr_1          INTENSITY 0:05     1        TIMESERIES 100yr_1         

[SUBCATCHMENTS]
;;Name           Rain Gage        Outlet           Area     %Imperv  Width    %Slope   CurbLen  SnowPack        
;;-------------- ---------------- ---------------- -------- -------- -------- -------- -------- ----------------
2168             100yr_1          6406             0        25       271.2324 0.5      0                        
2169             100yr_1          5956             0        25       822.7679 0.5      0                        
2170             100yr_1          6012             0        25       231.3331 0.5      0                        
2173             100yr_1          5458             0        25       655.3686 0.5      0                        
2174             100yr_1          5819             0        25       499.1363 0.5      0                        
2175             100yr_1          5461             0        25       591.1337 0.5      0                        
2177             100yr_1          6084             0        25       612.2483 0.5      0                        
2178             100yr_1          6579             0        25       196.1097 0.5      0                        
2179             100yr_1          6583             0        25       423.43   0.5      0                        
2181             100yr_1          6427             0        25       334.5131 0.5      0                        
2182             100yr_1          6431             0        25       379.2941 0.5      0                        
2191             100yr_1          7212             0        25       710.2274 0.5      0                        
2192             100yr_1          7153             0        25       710.2274 0.5      0                        
61               100yr_1          Dummy_2151       0        25       1107.8809 0.5      0                        

[SUBAREAS]
;;Subcatchment   N-Imperv   N-Perv     S-Imperv   S-Perv     PctZero    RouteTo    PctRouted 
;;-------------- ---------- ---------- ---------- ---------- ---------- ---------- ----------
2168             0.013      0.1        1.5        5          25         OUTLET    
2169             0.013      0.1        1.5        5          25         OUTLET    
2170             0.013      0.1        1.5        5          25         OUTLET    
2173             0.013      0.1        1.5        5          25         OUTLET    
2174             0.013      0.1        1.5        5          25         OUTLET    
2175             0.013      0.1        1.5        5          25         OUTLET    
2177             0.013      0.1        1.5        5          25         OUTLET    
2178             0.013      0.1        1.5        5          25         OUTLET    
2179             0.013      0.1        1.5        5          25         OUTLET    
2181             0.013      0.1        1.5        5          25         OUTLET    
2182             0.013      0.1        1.5        5          25         OUTLET    
2191             0.013      0.1        1.5        5          25         OUTLET    
2192             0.013      0.1        1.5        5          25         OUTLET    
61               0.013      0.1        1.5        5          25         OUTLET    

[INFILTRATION]
;;Subcatchment   MaxRate    MinRate    Decay      DryTime    MaxInfil  
;;-------------- ---------- ---------- ---------- ---------- ----------
2168             76         2.5        2          7          0         
2169             76         2.5        2          7          0         
2170             76         2.5        2          7          0         
2173             76         2.5        2          7          0         
2174             76         2.5        2          7          0         
2175             76         2.5        2          7          0         
2177             76         2.5        2          7          0         
2178             76         2.5        2          7          0         
2179             76         2.5        2          7          0         
2181             76         2.5        2          7          0         
2182             76         2.5        2          7          0         
2191             76         2.5        2          7          0         
2192             76         2.5        2          7          0         
61               76         2.5        2          7          0         

[JUNCTIONS]
;;Name           Elevation  MaxDepth   InitDepth  SurDepth   Aponded   
;;-------------- ---------- ---------- ---------- ---------- ----------
4185             336.03     2.97       0          0          0         
5332             327.66     5.871      0          0          0         
5333             328.025    5.975      0          0          0         
5334             328.965    5.035      0          0          0         
5335             328.16     6.282      0          0          0         
5336             328.29     6.71       0          0          0         
5337             328.445    7.055      0          0          0         
5338             330.275    5.271      0          0          0         
5339             328.6      7.116      0          0          0         
5340             329.19     6.633      0          0          0         
5341             328.895    7.391      0          0          0         
5342             328.74     7.26       0          0          0         
5343             329.6      6.4        0          0          0         
5344             329.705    6.295      0          0          0         
5345             329.9      4.1        0          0          0         
5346             333.235    3.265      0          0          0         
5347             330.85     5.263      0          0          0         
5348             331.29     5.21       0          0          0         
5349             331.975    3.545      0          0          0         
5350             332.15     3.35       0          0          0         
5351             332.56     3.172      0          0          0         
5352             332.455    3.309      0          0          0         
5353             332.385    3.499      0          0          0         
5400             331.76     4.909      0          0          0         
5401             332.96     2.941      0          0          0         
5402             332.32     4.18       0          0          0         
5403             329.44     6.604      0          0          0         
5404             329.725    6.275      0          0          0         
5405             329.9      6.1        0          0          0         
5406             332.405    3.595      0          0          0         
5407             332.63     3.68       0          0          0         
5408             332.74     3.66       0          0          0         
5409             333.78     2.72       0          0          0         
5442             328.15     7.354      0          0          0         
5443             327.644    6.91       0          0          0         
5444             327.06     6.44       0          0          0         
5445             330.475    3.089      0          0          0         
5446             331.865    3.482      0          0          0         
5447             326.82     6.68       0          0          0         
5448             326.6      6.187      0          0          0         
5449             326.305    6.441      0          0          0         
5450             326.21     6.458      0          0          0         
5451             328.13     4.639      0          0          0         
5452             329.705    3.295      0          0          0         
5453             323.395    9.596      0          0          0         
5454             323.455    9.393      0          0          0         
5455             323.205    9.795      0          0          0         
5456             323.155    9.563      0          0          0         
5457             323.073    9.927      0          0          0         
5458             325.804    7.196      0          0          0         
5459             322.865    10.135     0          0          0         
5460             322.895    10.105     0          0          0         
5461             322.615    10.185     0          0          0         
5462             329.73     3.646      0          0          0         
5463             330.05     3.758      0          0          0         
5464             321.925    6.375      0          0          0         
5465             322.22     5.58       0          0          0         
5466             322.285    5.715      0          0          0         
5467             328.305    4.83       0          0          0         
5468             328.86     3.64       0          0          0         
5469             329        3.5        0          0          0         
5470             329.34     3.66       0          0          0         
5471             329.48     3.52       0          0          0         
5472             329.9      3.6        0          0          0         
5473             330.362    3.638      0          0          0         
5474             330.26     3.74       0          0          0         
5475             329.84     4.83       0          0          0         
5476             330.705    3.795      0          0          0         
5477             330.812    3.688      0          0          0         
5478             331.205    3.795      0          0          0         
5483             333.135    5.603      0          0          0         
5484             335.035    3.493      0          0          0         
5485             332.15     3.454      0          0          0         
5486             331.8      1.848      0          0          0         
5487             334.425    3.683      0          0          0         
5488             333.635    3.76       0          0          0         
5489             332.98     3.628      0          0          0         
5490             332.2      4.391      0          0          0         
5491             331.28     3.806      0          0          0         
5492             330.52     3.108      0          0          0         
5493             330.325    3.096      0          0          0         
5494             330.16     3.466      0          0          0         
5495             330.855    3.645      0          0          0         
5496             330.775    3.725      0          0          0         
5497             330.675    3.825      0          0          0         
5498             330.58     3.92       0          0          0         
5499             330.37     4.13       0          0          0         
5500             331.48     2.618      0          0          0         
5501             331.14     3.387      0          0          0         
5550             335.95     3.626      0          0          0         
5649             330.865    5.635      0          0          0         
5650             330.555    5.445      0          0          0         
5651             330.39     5.61       0          0          0         
5652             330.065    6.251      0          0          0         
5653             333.34     3.358      0          0          0         
5654             333.68     3.294      0          0          0         
5655             334.11     3.39       0          0          0         
5656             331.635    5.158      0          0          0         
5657             331.92     4.58       0          0          0         
5658             332.23     3.564      0          0          0         
5659             332.35     3.299      0          0          0         
5660             332.25     4.25       0          0          0         
5661             332.55     3.506      0          0          0         
5662             332.89     2.694      0          0          0         
5663             332.985    2.598      0          0          0         
5664             331.12     5.639      0          0          0         
5809             331.295    3.205      0          0          0         
5810             330.505    3.995      0          0          0         
5811             330.075    4.804      0          0          0         
5812             329.64     4.098      0          0          0         
5813             329.175    3.825      0          0          0         
5814             325.32     7.68       0          0          0         
5815             325.675    5.825      0          0          0         
5816             325.15     7.85       0          0          0         
5817             325        7.5        0          0          0         
5818             324.675    8.04       0          0          0         
5819             324.205    8.795      0          0          0         
5820             329.57     3.559      0          0          0         
5821             330.06     3.44       0          0          0         
5822             330.24     3.539      0          0          0         
5823             330.43     3.57       0          0          0         
5824             330.665    3.398      0          0          0         
5825             331.455    3.215      0          0          0         
5826             330.77     4.034      0          0          0         
5827             330.22     3.78       0          0          0         
5828             329.705    3.782      0          0          0         
5829             330.69     3.81       0          0          0         
5946             323.67     7.83       0          0          0         
5947             323.806    7.235      0          0          0         
5948             323.945    7.555      0          0          0         
5949             324.089    8.106      0          0          0         
5950             324.297    8.703      0          0          0         
5951             324.522    9.406      0          0          0         
5952             324.904    9.367      0          0          0         
5953             325.139    9.013      0          0          0         
5954             325.373    8.627      0          0          0         
5955             325.495    8.505      0          0          0         
5956             325.751    8.249      0          0          0         
5957             325.918    8.082      0          0          0         
5958             326.11     8.992      0          0          0         
5959             326.375    10.392     0          0          0         
5960             327.926    8.942      0          0          0         
5961             328.042    8.841      0          0          0         
5962             326.521    10.196     0          0          0         
5963             329.189    7.678      0          0          0         
5964             329.219    7.762      0          0          0         
5965             329.384    7.292      0          0          0         
5966             329.74     6.76       0          0          0         
5967             329.936    6.064      0          0          0         
5968             331.765    5.06       0          0          0         
5969             332.151    4.849      0          0          0         
5970             330.851    4.149      0          0          0         
5971             330.925    4.075      0          0          0         
5972             331.445    4.055      0          0          0         
5973             332.49     3.4        0          0          0         
5974             327.022    7.978      0          0          0         
5975             326.83     9.081      0          0          0         
5976             326.584    9.916      0          0          0         
5977             328.093    8.407      0          0          0         
5978             328.526    7.097      0          0          0         
5979             329.017    6.483      0          0          0         
5980             329.688    5.944      0          0          0         
5981             330.284    5.571      0          0          0         
5982             330.812    4.688      0          0          0         
5983             331.313    4.209      0          0          0         
5984             332.008    3.057      0          0          0         
5985             332.308    3.192      0          0          0         
5986             332.431    3.113      0          0          0         
5987             332.765    3.315      0          0          0         
5988             330.33     4.67       0          0          0         
5989             330.415    4.585      0          0          0         
5990             330.755    4.227      0          0          0         
5991             331.14     3.417      0          0          0         
5992             331.205    3.469      0          0          0         
5993             331.306    3.314      0          0          0         
5994             332.031    2.51       0          0          0         
5995             332.019    2.61       0          0          0         
5996             331.047    3.576      0          0          0         
5997             330.952    3.694      0          0          0         
5998             330.852    3.806      0          0          0         
5999             331.59     4.232      0          0          0         
6000             332.035    4.271      0          0          0         
6001             332.51     3.99       0          0          0         
6002             333.36     3.506      0          0          0         
6003             334.085    2.915      0          0          0         
6004             333.11     3.89       0          0          0         
6005             332.57     3.93       0          0          0         
6006             332.445    4.055      0          0          0         
6007             332.35     3.738      0          0          0         
6008             331.81     4.19       0          0          0         
6009             330.89     4.689      0          0          0         
6010             332.385    3.534      0          0          0         
6011             332.77     4.23       0          0          0         
6012             329.6      5.9        0          0          0         
6013             329.31     6.19       0          0          0         
6014             329.09     6.41       0          0          0         
6015             328.855    7.094      0          0          0         
6016             328.535    7.465      0          0          0         
6017             328.425    7.454      0          0          0         
6018             328.05     4.04       0          0          0         
6019             329.47     6.364      0          0          0         
6020             332.342    3.018      0          0          0         
6021             331.37     3.63       0          0          0         
6022             331.215    3.285      0          0          0         
6023             330.84     3.548      0          0          0         
6024             327.76     6.632      0          0          0         
6025             327.57     6.93       0          0          0         
6026             327.43     6.935      0          0          0         
6027             326.8      7.2        0          0          0         
6028             326.55     7.45       0          0          0         
6029             325.88     8.12       0          0          0         
6030             330.77     3.81       0          0          0         
6031             331.085    3.915      0          0          0         
6075             327.14     5.543      0          0          0         
6076             326.91     5.982      0          0          0         
6077             326.7      5.3        0          0          0         
6078             327.515    5.619      0          0          0         
6079             327.23     3.27       0          0          0         
6080             326.97     4.258      0          0          0         
6081             326.375    6.125      0          0          0         
6082             326.16     6.576      0          0          0         
6083             325.91     7.59       0          0          0         
6084             325.72     7.81       0          0          0         
6085             327.41     5.616      0          0          0         
6086             330.849    6.651      0          0          0         
6087             331.056    5.944      0          0          0         
6088             331.372    5.616      0          0          0         
6089             333.197    4.606      0          0          0         
6090             331.564    4.936      0          0          0         
6091             331.852    6.233      0          0          0         
6092             332.092    6.112      0          0          0         
6093             332.227    6.273      0          0          0         
6094             332.517    6.483      0          0          0         
6095             332.823    6.677      0          0          0         
6096             330.385    6.725      0          0          0         
6097             335.357    4.091      0          0          0         
6098             335.974    3.026      0          0          0         
6099             334.203    4.797      0          0          0         
6100             336.503    3.279      0          0          0         
6101             336.384    3.486      0          0          0         
6102             336.3      3.454      0          0          0         
6103             335.639    3.706      0          0          0         
6104             335.527    3.265      0          0          0         
6105             334.93     3.378      0          0          0         
6106             334.72     3.257      0          0          0         
6107             334.155    3.345      0          0          0         
6108             332.535    4.465      0          0          0         
6109             332.05     4.45       0          0          0         
6110             331.702    4.798      0          0          0         
6111             333.03     3.717      0          0          0         
6112             333.41     3.59       0          0          0         
6113             333.74     4.84       0          0          0         
6114             333.17     4.33       0          0          0         
6115             333.05     4.437      0          0          0         
6116             332.98     4.249      0          0          0         
6117             333.171    5.829      0          0          0         
6119             333.521    5.367      0          0          0         
6120             334.618    4.382      0          0          0         
6121             333.678    4.74       0          0          0         
6122             334.01     4.36       0          0          0         
6123             335.272    3.228      0          0          0         
6124             334.115    4.385      0          0          0         
6125             334.549    4.415      0          0          0         
6126             334.961    4.539      0          0          0         
6127             334.873    4.289      0          0          0         
6128             334.751    4.249      0          0          0         
6129             334.601    4.399      0          0          0         
6130             334.281    4.673      0          0          0         
6131             334.81     4.19       0          0          0         
6132             335.435    3.065      0          0          0         
6135             333.59     4.332      0          0          0         
6136             333.724    4.061      0          0          0         
6137             333.839    3.9        0          0          0         
6138             333.954    3.994      0          0          0         
6139             334.078    3.922      0          0          0         
6140             334.406    3.594      0          0          0         
6141             333.26     4.74       0          0          0         
6199             328.905    3.868      0          0          0         
6200             327.915    5.859      0          0          0         
6201             328.427    4.602      0          0          0         
6202             328.811    4.651      0          0          0         
6203             329.153    4.847      0          0          0         
6204             329.957    4.043      0          0          0         
6205             329.995    4.005      0          0          0         
6206             330.806    3.194      0          0          0         
6207             330.493    3.507      0          0          0         
6208             329.88     4          0          0          0         
6209             329.765    4.151      0          0          0         
6210             329.585    4.393      0          0          0         
6211             328.94     4.56       0          0          0         
6212             330.641    2.859      0          0          0         
6213             326.206    4.794      0          0          0         
6283             332.631    4.74       0          0          0         
6284             333.003    4.497      0          0          0         
6285             333.23     4.609      0          0          0         
6286             333.385    4.559      0          0          0         
6287             333.579    4.421      0          0          0         
6288             333.925    3.55       0          0          0         
6289             334.397    3.362      0          0          0         
6290             334.51     3.49       0          0          0         
6291             334.764    3.551      0          0          0         
6292             335.13     3.37       0          0          0         
6293             334.592    3.249      0          0          0         
6294             334.123    3.957      0          0          0         
6295             333.635    3.999      0          0          0         
6296             333.968    3.883      0          0          0         
6297             334.549    3.19       0          0          0         
6298             334.479    3.232      0          0          0         
6299             334.135    3.436      0          0          0         
6300             333.381    4.389      0          0          0         
6301             333.197    4.348      0          0          0         
6302             333.002    4.498      0          0          0         
6303             332.681    4.49       0          0          0         
6304             332.293    4.747      0          0          0         
6305             331.32     5.743      0          0          0         
6306             333.157    4.363      0          0          0         
6307             333.504    4.396      0          0          0         
6308             332.825    4.275      0          0          0         
6309             331.838    4.862      0          0          0         
6310             331.317    4.346      0          0          0         
6311             333.733    3.867      0          0          0         
6312             333.764    4.736      0          0          0         
6313             335.169    3.278      0          0          0         
6314             334.738    3.752      0          0          0         
6315             334.502    3.678      0          0          0         
6316             334.728    4.268      0          0          0         
6317             333.698    4.342      0          0          0         
6390             331.372    4.198      0          0          0         
6391             328.087    8.743      0          0          0         
6392             328.231    8.459      0          0          0         
6393             332.822    3.208      0          0          0         
6394             331.864    2.956      0          0          0         
6395             331.767    3.053      0          0          0         
6396             332.407    3.073      0          0          0         
6397             332.274    3.046      0          0          0         