[TITLE]
;;Project Title/Notes

[OPTIONS]
;;Option             Value
FLOW_UNITS           CFS
INFILTRATION         CURVE_NUMBER
FLOW_ROUTING         KINWAVE
LINK_OFFSETS         DEPTH
MIN_SLOPE            0
ALLOW_PONDING        YES
SKIP_STEADY_STATE    NO

START_DATE           08/26/2016
START_TIME           00:00:00
REPORT_START_DATE    08/26/2016
REPORT_START_TIME    00:00:00
END_DATE             08/26/2016
END_TIME             00:00:00
SWEEP_START          1/1
SWEEP_END            12/31
DRY_DAYS             0
REPORT_STEP          00:05:00
WET_STEP             00:05:00
DRY_STEP             01:00:00
ROUTING_STEP         0:00:30 

INERTIAL_DAMPING     PARTIAL
NORMAL_FLOW_LIMITED  BOTH
FORCE_MAIN_EQUATION  H-W
VARIABLE_STEP        0.75
LENGTHENING_STEP     0
MIN_SURFAREA         0
MAX_TRIALS           0
HEAD_TOLERANCE       0
SYS_FLOW_TOL         5
LAT_FLOW_TOL         5
MINIMUM_STEP         0.5
THREADS              1

[EVAPORATION]
;;Data Source    Parameters
;;-------------- ----------------
CONSTANT         0.0
DRY_ONLY         NO

[SUBCATCHMENTS]
;;Name           Rain Gage        Outlet           Area     %Imperv  Width    %Slope   CurbLen  SnowPack        
;;-------------- ---------------- ---------------- -------- -------- -------- -------- -------- ----------------
;French Creek
Sub-01           *                *                295652343.81 25.00    500.00   1.1828   0                        
;Garrison Slough
S224.1           *                *                46235611.77 25.00    500.00   0.1728   0                        
;Garrison Slough
S227             *                *                6445112.35 25.00    500.00   0.4093   0                        
;Retention BasinW
S156             *                *                2758576.32 25.00    500.00   0.2980   0                        
;Garrison Slough
S18              *                *                5126625.38 25.00    500.00   0.2932   0                        
;Garrison Slough
S144             *                *                2171284.89 25.00    500.00   0.1799   0                        
;Manchu Ponds
S229             *                *                648604.36 25.00    500.00   0.5898   0                        
;Manchu Ponds
S210             *                *                3621744.96 25.00    500.00   0.7206   0                        
;Manchu Ponds
S176             *                *                2171996.65 25.00    500.00   0.8127   0                        
;Garrison Slough?
S236             *                *                542524.8 25.00    500.00   0.6299   0                        
;Garrison Slough?
S237             *                *                1633686.31 25.00    500.00   0.5447   0                        
;French Creek (wetland)
S232             *                *                245636.37 25.00    500.00   1.3807   0                        
;Inline storage?
Sub-02           *                *                2339959.81 25.00    500.00   0.5544   0                        
;Garrison Slough
S138             *                *                5709115.25 25.00    500.00   0.4359   0                        
;Garrison Slough
S36              *                *                14714529.97 25.00    500.00   0.1618   0                        
;Garrison Slough
S151             *                *                5032347.23 25.00    500.00   0.1715   0                        
;Garrison Slough
S51              *                *                4551844.44 25.00    500.00   0.2247   0                        
;Garrison Slough
S199             *                *                3946957.17 25.00    500.00   0.4860   0                        
;Retention Pond
S95              *                *                855779.73 25.00    500.00   0.3350   0                        
;Spruce Lake
Spruce           *                *                1376005.92 25.00    500.00   3.2082   0                        
;Garrison Slough
S167             *                *                2098689.46 25.00    500.00   0.2327   0                        
;Garrison Slough
S76              *                *                1441460.01 25.00    500.00   0.4620   0                        
;Garrison Slough
S147             *                *                1622068.89 25.00    500.00   0.1828   0                        
;Garrison Slough
S134             *                *                1588404.16 25.00    500.00   0.1937   0                        
;Garrison Slough
S131             *                *                2111672.37 25.00    500.00   0.1819   0                        
;Manchu Ponds
S106             *                *                130939.65 25.00    500.00   0.5820   0                        
;Manchu Ponds
S110             *                *                219305.49 25.00    500.00   1.2125   0                        
;Retention BasinW
S156.1           *                *                1255348.19 25.00    500.00   0.4690   0                        
;Manchu Ponds
S181             *                *                1087612.75 25.00    500.00   0.3547   0                        
;Garrison Slough
S55              *                *                3787222.33 25.00    500.00   0.6072   0                        
;Retention Pond
S3.1             *                *                718851.03 25.00    500.00   0.4073   0                        
;Retention Pond
S253             *                *                830756.29 25.00    500.00   0.2155   0                        
;Garrison Slough
S69              *                *                2006076.44 25.00    500.00   0.3229   0                        
;Garrison Slough
S224.2           *                *                2902270.98 25.00    500.00   0.1240   0                        
;Garrison Slough
S68              *                *                11356810.21 25.00    500.00   0.1458   0                        
;Garrison Slough
S224.3           *                *                12892986.3 25.00    500.00   0.1559   0                        
;Garrison Slough
S136.1           *                *                376393.91 25.00    500.00   0.2967   0                        
;Garrison Slough
S136.2           *                *                252539.29 25.00    500.00   0.5027   0                        
;Garrison Slough
S25              *                *                282935.32 25.00    500.00   0.6228   0                        
;Garrison Slough
S2               *                *                353004.39 25.00    500.00   0.9855   0                        
;Garrison Slough
S22              *                *                736715.2 25.00    500.00   0.6685   0                        
;Moose Lake
Moose            *                *                5570766.9 25.00    500.00   0.5980   0                        
;Moose Lake
S240             *                *                306781   25.00    500.00   0.5669   0                        
;Moose Lake
S233             *                *                162535.43 25.00    500.00   0.9118   0                        
;Moose Lake
S239             *                *                242490.58 25.00    500.00   0.6097   0                        
;Moose Lake
S241             *                *                198584.79 25.00    500.00   0.5235   0                        
;French Creek (wetland)
S242             *                *                80095.48 25.00    500.00   1.7411   0                        
;Moose Lake
S197             *                *                188516.87 25.00    500.00   0.6889   0                        
;Moose Lake
S187             *                *                169668.43 25.00    500.00   0.6757   0                        
;Moose Lake
S192             *                *                237088.02 25.00    500.00   0.2859   0                        
;Moose Lake
S164             *                *                150948.7 25.00    500.00   1.4924   0                        
;Moose Lake
S194             *                *                122297.48 25.00    500.00   0.2906   0                        
;Moose Lake
S234             *                *                57293.47 25.00    500.00   2.4143   0                        
;Moose Lake
S161             *                *                243834.6 25.00    500.00   0.5818   0                        
;Moose Lake
S160             *                *                87091.92 25.00    500.00   1.2119   0                        
;Moose Lake
S157             *                *                210743.27 25.00    500.00   1.0838   0                        
;Garrison Slough?
S152             *                *                136096.18 25.00    500.00   0.6605   0                        
;Garrison Slough?
S155             *                *                87615.28 25.00    500.00   1.1449   0                        
;Garrison Slough?
S212             *                *                1219670.94 25.00    500.00   0.8397   0                        
;Moose Lake
Sub-03           *                *                464477.12 25.00    500.00   0.5316   0                        
;Manchu Ponds
S185             *                *                340426.97 25.00    500.00   0.6013   0                        
;Garrison Slough
S237.1           *                *                4415096.6 25.00    500.00   0.5101   0                        
;Garrison Slough
Pond             *                *                1192306.28 25.00    500.00   4.0442   0                        
;Garrison Slough
S40              *                *                1429254.36 25.00    500.00   0.4782   0                        
;Garrison Slough
S5               *                *                1418315.58 25.00    500.00   0.3627   0                        
;Garrison Slough
S54              *                *                1726491.88 25.00    500.00   0.4216   0                        
;Garrison Slough
S52              *                *                223034.22 25.00    500.00   1.3060   0                        
;Garrison Slough
S60              *                *                1536554.86 25.00    500.00   1.9302   0                        
;Moose Lake
S228             *                *                172688.74 25.00    500.00   2.4473   0                        
;Retention Pond
S94.3            *                *                1084950.5 25.00    500.00   0.6169   0                        
;Garrison Slough
S65              *                *                504541.85 25.00    500.00   0.5588   0                        
;Retention Pond
S149             *                *                1960724.49 25.00    500.00   0.2559   0                        
;Retention Pond
S226             *                *                1353443.72 25.00    500.00   1.3698   0                        
;Retention Pond
S94.1            *                *                76223.54 25.00    500.00   1.4202   0                        
;Garrison Slough
S44              *                *                658912.27 25.00    500.00   1.1089   0                        
;Retention Pond
Sub-04           *                *                3762222.45 25.00    500.00   1.0128   0                        
;Garrison Slough
S173             *                *                2474810.22 25.00    500.00   0.3336   0                        
;Garrison Slough
S38              *                *                1196095.51 25.00    500.00   0.2998   0                        
;Garrison Slough
S9               *                *                991970.31 25.00    500.00   0.4549   0                        
;Moose Lake
S188             *                *                91593.04 25.00    500.00   0.3424   0                        
;Moose Lake
S235             *                *                97494.73 25.00    500.00   0.6936   0                        
;Moose Lake
S238             *                *                107203.07 25.00    500.00   0.5980   0                        

[SUBAREAS]
;;Subcatchment   N-Imperv   N-Perv     S-Imperv   S-Perv     PctZero    RouteTo    PctRouted 
;;-------------- ---------- ---------- ---------- ---------- ---------- ---------- ----------
Sub-01           0.0150     0.1000     0.08       0.20       25         OUTLET    
S224.1           0.0150     0.1000     0.08       0.20       25         OUTLET    
S227             0.0150     0.1000     0.08       0.20       25         OUTLET    
S156             0.0150     0.1000     0.08       0.20       25         OUTLET    
S18              0.0150     0.1000     0.08       0.20       25         OUTLET    
S144             0.0150     0.1000     0.08       0.20       25         OUTLET    
S229             0.0150     0.1000     0.08       0.20       25         OUTLET    
S210             0.0150     0.1000     0.08       0.20       25         OUTLET    
S176             0.0150     0.1000     0.08       0.20       25         OUTLET    
S236             0.0150     0.1000     0.08       0.20       25         OUTLET    
S237             0.0150     0.1000     0.08       0.20       25         OUTLET    
S232             0.0150     0.1000     0.08       0.20       25         OUTLET    
Sub-02           0.0150     0.1000     0.08       0.20       25         OUTLET    
S138             0.0150     0.1000     0.08       0.20       25         OUTLET    
S36              0.0150     0.1000     0.08       0.20       25         OUTLET    
S151             0.0150     0.1000     0.08       0.20       25         OUTLET    
S51              0.0150     0.1000     0.08       0.20       25         OUTLET    
S199             0.0150     0.1000     0.08       0.20       25         OUTLET    
S95              0.0150     0.1000     0.08       0.20       25         OUTLET    
Spruce           0.0150     0.1000     0.08       0.20       25         OUTLET    
S167             0.0150     0.1000     0.08       0.20       25         OUTLET    
S76              0.0150     0.1000     0.08       0.20       25         OUTLET    
S147             0.0150     0.1000     0.08       0.20       25         OUTLET    
S134             0.0150     0.1000     0.08       0.20       25         OUTLET    
S131             0.0150     0.1000     0.08       0.20       25         OUTLET    
S106             0.0150     0.1000     0.08       0.20       25         OUTLET    
S110             0.0150     0.1000     0.08       0.20       25         OUTLET    
S156.1           0.0150     0.1000     0.08       0.20       25         OUTLET    
S181             0.0150     0.1000     0.08       0.20       25         OUTLET    
S55              0.0150     0.1000     0.08       0.20       25         OUTLET    
S3.1             0.0150     0.1000     0.08       0.20       25         OUTLET    
S253             0.0150     0.1000     0.08       0.20       25         OUTLET    
S69              0.0150     0.1000     0.08       0.20       25         OUTLET    
S224.2           0.0150     0.1000     0.08       0.20       25         OUTLET    
S68              0.0150     0.1000     0.08       0.20       25         OUTLET    
S224.3           0.0150     0.1000     0.08       0.20       25         OUTLET    
S136.1           0.0150     0.1000     0.08       0.20       25         OUTLET    
S136.2           0.0150     0.1000     0.08       0.20       25         OUTLET    
S25              0.0150     0.1000     0.08       0.20       25         OUTLET    
S2               0.0150     0.1000     0.08       0.20       25         OUTLET    
S22              0.0150     0.1000     0.08       0.20       25         OUTLET    
Moose            0.0150     0.1000     0.08       0.20       25         OUTLET    
S240             0.0150     0.1000     0.08       0.20       25         OUTLET    
S233             0.0150     0.1000     0.08       0.20       25         OUTLET    
S239             0.0150     0.1000     0.08       0.20       25         OUTLET    
S241             0.0150     0.1000     0.08       0.20       25         OUTLET    
S242             0.0150     0.1000     0.08       0.20       25         OUTLET    
S197             0.0150     0.1000     0.08       0.20       25         OUTLET    
S187             0.0150     0.1000     0.08       0.20       25         OUTLET    
S192             0.0150     0.1000     0.08       0.20       25         OUTLET    
S164             0.0150     0.1000     0.08       0.20       25         OUTLET    
S194             0.0150     0.1000     0.08       0.20       25         OUTLET    
S234             0.0150     0.1000     0.08       0.20       25         OUTLET    
S161             0.0150     0.1000     0.08       0.20       25         OUTLET    
S160             0.0150     0.1000     0.08       0.20       25         OUTLET    
S157             0.0150     0.1000     0.08       0.20       25         OUTLET    
S152             0.0150     0.1000     0.08       0.20       25         OUTLET    
S155             0.0150     0.1000     0.08       0.20       25         OUTLET    
S212             0.0150     0.1000     0.08       0.20       25         OUTLET    
Sub-03           0.0150     0.1000     0.08       0.20       25         OUTLET    
S185             0.0150     0.1000     0.08       0.20       25         OUTLET    
S237.1           0.0150     0.1000     0.08       0.20       25         OUTLET    
Pond             0.0150     0.1000     0.08       0.20       25         OUTLET    
S40              0.0150     0.1000     0.08       0.20       25         OUTLET    
S5               0.0150     0.1000     0.08       0.20       25         OUTLET    
S54              0.0150     0.1000     0.08       0.20       25         OUTLET    
S52              0.0150     0.1000     0.08       0.20       25         OUTLET    
S60              0.0150     0.1000     0.08       0.20       25         OUTLET    
S228             0.0150     0.1000     0.08       0.20       25         OUTLET    
S94.3            0.0150     0.1000     0.08       0.20       25         OUTLET    
S65              0.0150     0.1000     0.08       0.20       25         OUTLET    
S149             0.0150     0.1000     0.08       0.20       25         OUTLET    
S226             0.0150     0.1000     0.08       0.20       25         OUTLET    
S94.1            0.0150     0.1000     0.08       0.20       25         OUTLET    
S44              0.0150     0.1000     0.08       0.20       25         OUTLET    
Sub-04           0.0150     0.1000     0.08       0.20       25         OUTLET    
S173             0.0150     0.1000     0.08       0.20       25         OUTLET    
S38              0.0150     0.1000     0.08       0.20       25         OUTLET    
S9               0.0150     0.1000     0.08       0.20       25         OUTLET    
S188             0.0150     0.1000     0.08       0.20       25         OUTLET    
S235             0.0150     0.1000     0.08       0.20       25         OUTLET    
S238             0.0150     0.1000     0.08       0.20       25         OUTLET    

[INFILTRATION]
;;Subcatchment   CurveNum              DryTime   
;;-------------- ---------- ---------- ----------
Sub-01           72.00      0.15       7         
S224.1           80         0.15       7         
S227             80         0.15       7         
S156             80         0.15       7         
S18              80         0.15       7         
S144             80         0.15       7         
S229             80         0.15       7         
S210             80         0.15       7         
S176             80         0.15       7         
S236             80         0.15       7         
S237             80         0.15       7         
S232             80         0.15       7         
Sub-02           80         0.15       7         
S138             80         0.15       7         
S36              80         0.15       7         
S151             80         0.15       7         
S51              80         0.15       7         
S199             80         0.15       7         
S95              80         0.15       7         
Spruce           80         0.15       7         
S167             80         0.15       7         
S76              80         0.15       7         
S147             80         0.15       7         
S134             80         0.15       7         
S131             80         0.15       7         
S106             80         0.15       7         
S110             80         0.15       7         
S156.1           80         0.15       7         
S181             80         0.15       7         
S55              80         0.15       7         
S3.1             80         0.15       7         
S253             80         0.15       7         
S69              80         0.15       7         
S224.2           80         0.15       7         
S68              80         0.15       7         
S224.3           80         0.15       7         
S136.1           80         0.15       7         
S136.2           80         0.15       7         
S25              80         0.15       7         
S2               80         0.15       7         
S22              80         0.15       7         
Moose            80         0.15       7         
S240             80         0.15       7         
S233             80         0.15       7         
S239             80         0.15       7         
S241             80         0.15       7         
S242             80         0.15       7         
S197             80         0.15       7         
S187             80         0.15       7         
S192             80         0.15       7         
S164             80         0.15       7         
S194             80         0.15       7         
S234             80         0.15       7         
S161             80         0.15       7         
S160             80         0.15       7         
S157             80         0.15       7         
S152             80         0.15       7         
S155             80         0.15       7         
S212             80         0.15       7         
Sub-03           80         0.15       7         
S185             80         0.15       7         
S237.1           80         0.15       7         
Pond             80         0.15       7         
S40              80         0.15       7         
S5               80         0.15       7         
S54              80         0.15       7         
S52              80         0.15       7         
S60              80         0.15       7         
S228             80         0.15       7         
S94.3            80         0.15       7         
S65              80         0.15       7         
S149             80         0.15       7         
S226             80         0.15       7         
S94.1            80         0.15       7         
S44              80         0.15       7         
Sub-04           80         0.15       7         
S173             80         0.15       7         
S38              80         0.15       7         
S9               80         0.15       7         
S188             80         0.15       7         
S235             80         0.15       7         
S238             80         0.15       7         

[REPORT]
;;Reporting Options
INPUT      YES
CONTROLS   YES
SUBCATCHMENTS ALL
NODES ALL
LINKS ALL

[TAGS]

[MAP]
DIMENSIONS 493367.160 7163678.200 502482.580 7176595.110
Units      Feet

[COORDINATES]
;;Node           X-Coord            Y-Coord           
;;-------------- ------------------ ------------------

[VERTICES]
;;Link           X-Coord            Y-Coord           
;;-------------- ------------------ ------------------

[Polygons]
;;Subcatchment   X-Coord            Y-Coord           
;;-------------- ------------------ ------------------
Sub-01           494731.080         7175914.040       
Sub-01           494882.250         7175579.140       
Sub-01           495944.960         7175612.920       
Sub-01           498131.350         7175586.640       
Sub-01           498144.610         7173927.840       
Sub-01           499677.140         7173963.120       
Sub-01           499702.030         7171595.410       
Sub-01           501326.510         7171565.940       
Sub-01           501666.360         7170317.030       
Sub-01           502068.240         7169031.050       
Sub-01           501544.080         7168214.050       
Sub-01           498878.640         7168262.460       
Sub-01           498871.110         7167400.340       
Sub-01           498132.960         7167497.220       
Sub-01           498133.010         7167500.870       
Sub-01           498133.080         7167505.920       
Sub-01           498121.870         7167549.970       
Sub-01           498085.010         7167810.100       
Sub-01           498103.150         7168189.740       
Sub-01           498025.730         7168331.860       
Sub-01           497897.150         7168419.420       
Sub-01           497847.610         7168499.450       
Sub-01           497841.800         7168508.850       
Sub-01           497841.800         7168508.850       
Sub-01           497841.780         7168508.890       
Sub-01           498322.620         7168933.960       
Sub-01           498310.120         7168961.240       
Sub-01           498223.350         7169043.860       
Sub-01           498223.100         7169043.590       
Sub-01           498222.160         7169044.480       
Sub-01           498215.830         7169037.650       
Sub-01           498175.750         7168994.440       
Sub-01           498164.250         7168998.220       
Sub-01           498122.040         7169012.100       
Sub-01           498117.450         7169008.120       
Sub-01           498059.810         7168958.180       
Sub-01           498048.230         7168961.250       
Sub-01           497966.110         7168983.010       
Sub-01           497899.750         7169069.460       
Sub-01           497884.170         7169085.700       
Sub-01           497883.940         7169085.320       
Sub-01           497882.940         7169086.360       
Sub-01           497857.240         7169042.560       
Sub-01           497834.300         7169026.330       
Sub-01           497841.710         7169084.170       
Sub-01           497827.250         7169244.140       
Sub-01           497793.610         7169344.800       
Sub-01           497672.200         7169537.890       
Sub-01           497665.360         7169553.240       
Sub-01           497638.300         7169617.680       
Sub-01           497643.380         7169706.480       
Sub-01           497602.260         7169742.830       
Sub-01           497587.630         7169745.920       
Sub-01           497568.070         7169732.610       
Sub-01           497538.480         7169728.110       
Sub-01           497526.450         7169744.220       
Sub-01           497493.260         7169769.870       
Sub-01           497480.410         7169763.630       
Sub-01           497446.850         7169782.260       
Sub-01           497422.490         7169807.660       
Sub-01           497395.410         7169819.950       
Sub-01           497366.080         7169769.640       
Sub-01           497320.100         7169676.500       
Sub-01           497269.130         7169593.340       
Sub-01           497256.970         7169573.520       
Sub-01           497200.680         7169616.530       
Sub-01           497116.090         7169652.250       
Sub-01           497007.480         7169695.330       
Sub-01           496899.140         7169707.930       
Sub-01           496833.460         7169720.060       
Sub-01           496744.530         7169704.490       
Sub-01           496744.500         7169704.490       
Sub-01           496741.200         7169714.950       
Sub-01           496775.090         7169799.010       
Sub-01           496736.670         7169927.800       
Sub-01           496723.710         7169971.260       
Sub-01           496723.530         7169971.860       
Sub-01           496705.710         7169980.550       
Sub-01           496676.020         7170018.660       
Sub-01           496675.650         7170019.140       
Sub-01           496701.120         7170039.790       
Sub-01           496720.280         7170064.870       
Sub-01           496736.810         7170102.440       
Sub-01           496816.610         7170609.140       
Sub-01           496817.170         7170612.660       
Sub-01           496819.660         7170611.770       
Sub-01           496901.940         7170577.860       
Sub-01           496947.360         7170559.130       
Sub-01           496946.880         7170559.790       
Sub-01           496947.700         7170559.490       
Sub-01           496965.590         7170557.590       
Sub-01           496985.910         7170569.700       
Sub-01           497081.830         7170565.800       
Sub-01           497149.810         7170567.710       
Sub-01           497192.840         7170581.990       
Sub-01           497209.400         7170598.120       
Sub-01           497265.930         7170691.120       
Sub-01           497261.980         7170711.340       
Sub-01           497249.780         7170745.190       
Sub-01           497273.500         7170837.670       
Sub-01           497220.510         7170962.490       
Sub-01           497204.810         7170974.240       
Sub-01           497182.700         7170963.270       
Sub-01           497150.050         7170955.120       
Sub-01           497134.690         7170961.130       
Sub-01           497099.990         7170946.350       
Sub-01           497071.260         7170948.260       
Sub-01           496990.050         7170900.730       
Sub-01           496947.710         7170880.870       
Sub-01           496917.540         7170854.410       
Sub-01           496895.170         7170825.030       
Sub-01           496877.500         7170791.290       
Sub-01           496870.180         7170747.440       