[TITLE]
;;Project Title/Notes
Subsistema de Beirolas (Fase III)

[OPTIONS]
;;Option             Value
FLOW_UNITS           LPS
INFILTRATION         HORTON
FLOW_ROUTING         DYNWAVE
LINK_OFFSETS         DEPTH
MIN_SLOPE            0
ALLOW_PONDING        YES
SKIP_STEADY_STATE    NO

START_DATE           12/02/2006
START_TIME           01:00:00
REPORT_START_DATE    12/02/2006
REPORT_START_TIME    01:00:00
END_DATE             12/06/2006
END_TIME             01:00:00
SWEEP_START          01/01
SWEEP_END            12/31
DRY_DAYS             0
REPORT_STEP          00:05:00
WET_STEP             00:02:00
DRY_STEP             00:02:00
ROUTING_STEP         0:00:30 

INERTIAL_DAMPING     NONE
NORMAL_FLOW_LIMITED  SLOPE
FORCE_MAIN_EQUATION  H-W
VARIABLE_STEP        0.75
LENGTHENING_STEP     10
MIN_SURFAREA         1.14
MAX_TRIALS           8
HEAD_TOLERANCE       0.0015
SYS_FLOW_TOL         5
LAT_FLOW_TOL         5
MINIMUM_STEP         0
THREADS              1

[EVAPORATION]
;;Data Source    Parameters
;;-------------- ----------------
CONSTANT         0.0
DRY_ONLY         NO

[RAINGAGES]
;;Name           Format    Interval SCF      Source    
;;-------------- --------- ------ ------ ----------
;Localizado na ETAR Beirolas
U01              INTENSITY 0:02     1.0      TIMESERIES U01             
;Localizado nos Bombeiros Voluntários de Camarate
U02              INTENSITY 0:02     1.0      TIMESERIES U01             

[SUBCATCHMENTS]
;;Name           Rain Gage        Outlet           Area     %Imperv  Width    %Slope   CurbLen  SnowPack        
;;-------------- ---------------- ---------------- -------- -------- -------- -------- -------- ----------------
B1               U01              0701001000       3.6093   5        50       1        0                        
B10              U01              0701044000       11.8480  25       590      1.6      0                        
B11              U01              0701034004       1.6238   3        64       4.7      0                        
B12              U01              0701050000       13.2     70       330      0.3      0                        
B13              U01              57               708.91   50       300      3        0                        
B14              U01              52               8        70       450      11       0                        
B15              U01              0701065000       25.5929  40       341.24   2.2      0                        
B16A             U01              0701106000       16.855   90       42.5     1        0                        
B17              U01              0701146000       63.55    80       80       0.3      0                        
B18              U01              0701161000       27.49    70       307.78   2.5      0                        
B19              U01              0701222000       0.2      10       8        1.2      0                        
B2               U01              58               47.095   10       356.8    2.3      0                        
B20              U01              0701211000       17.51    3        10       0.5      0                        
B21              U01              EE17_poco        34.64    5        90       0.4      0                        
B22              U01              48               45.96    23       400      18       0                        
B23              U01              56               85       60       1300     10       0                        
B24              U01              60               55       90       500      5        0                        
B25              U01              0701251000       22.15    3        15       0.2      0                        
B28              U01              0701007000       2.9      10       100      0.7      0                        
B29              U01              0701013000       6.03     3        400      1        0                        
B3               U01              0701016002       2.5612   40       108.33   12.2     0                        
B30              U01              0701025000       3.3      3        384      1.7      0                        
B31              U01              0701027000       1.7      10       198      1.7      0                        
B32              U01              0701072000       17       70       350      8.5      0                        
B33A             U01              0701086000       0.45     70       25       3        0                        
B34              U01              0701088000       2.4193   60       120      3        0                        
B35              U01              0701178000       1.957    2        5        4.7      0                        
B36              U01              0701180000       9.432    5        5        2        0                        
B37              U01              0701051000       3.0148   90       100      3        0                        
B4               U01              0701014000       0.8618   90       39.17    15       0                        
B5               U01              0701021004       6.2930   30       210      6        0                        
B6               U01              0701027006       4.4835   20       121      5        0                        
B7               U01              0701037006       2        50       140      7.3      0                        
B8               U01              0701035008       180.3172 75       1000     15       0                        
B9               U01              0701032000       19.54    10       162.5    2        0                        
B26              U02              46               450.06   30       1400     7        0                        
B27              U02              44               25       80       350      2.2      0                        
B33B             U01              0701071000       0.37     60       50       3        0                        
B16B             U01              0701070000       16.855   90       42.5     1        0                        
B8b              U01              0701035006       7        60       140      3.1      0                        
B21ficticia      U01              0701168000       30       .4       10       5        0                        

[SUBAREAS]
;;Subcatchment   N-Imperv   N-Perv     S-Imperv   S-Perv     PctZero    RouteTo    PctRouted 
;;-------------- ---------- ---------- ---------- ---------- ---------- ---------- ----------
B1               0.024      0.8        2          4          0          OUTLET    
B10              0.024      0.8        4          8          25         OUTLET    
B11              0.024      0.8        4          8          25         OUTLET    
B12              0.024      0.8        4          8          25         OUTLET    
B13              0.01       0.1        0.05       0.05       25         OUTLET    
B14              0.024      0.8        4          8          25         OUTLET    
B15              0.01       0.1        0.05       0.05       25         OUTLET    
B16A             0.01       0.1        0.05       0.05       25         OUTLET    
B17              0.01       0.1        0.05       0.05       25         OUTLET    
B18              0.01       0.1        0.05       0.05       25         OUTLET    
B19              0.01       0.1        0.05       0.05       25         OUTLET    
B2               0.024      0.6        0.05       0.05       25         OUTLET    
B20              0.024      0.8        4          8          25         OUTLET    
B21              0.01       0.1        0.05       0.05       25         OUTLET    
B22              0.024      0.8        4          8          25         OUTLET    
B23              0.01       0.1        0.05       0.05       25         OUTLET    
B24              0.01       0.1        0.05       0.05       25         OUTLET    
B25              0.024      0.8        4          8          25         OUTLET    
B28              0.024      0.8        2          4          25         OUTLET    
B29              0.024      0.08       4          8          0          OUTLET    
B3               0.01       0.1        0.05       0.05       25         OUTLET    
B30              0.024      0.08       4          8          25         OUTLET    
B31              0.024      0.8        4          8          25         OUTLET    
B32              0.01       0.1        0.05       0.05       25         OUTLET    
B33A             0.024      0.8        4          8          25         OUTLET    
B34              0.01       0.1        0.05       0.05       25         OUTLET    
B35              0.024      0.8        4          8          25         OUTLET    
B36              0.024      0.8        4          8          25         OUTLET    
B37              0.028      0.8        4          8          25         OUTLET    
B4               0.024      0.8        2          4          25         OUTLET    
B5               0.024      0.8        4          8          25         OUTLET    
B6               0.024      0.8        4          8          25         OUTLET    
B7               0.024      0.8        4          8          25         OUTLET    
B8               0.01       0.1        0.05       .05        25         OUTLET    
B9               0.024      0.8        4          8          25         OUTLET    
B26              0.01       0.1        0.05       0.05       25         OUTLET    
B27              0.01       0.1        0.05       0.05       25         OUTLET    
B33B             0.024      0.8        4          8          25         OUTLET    
B16B             0.01       0.1        0.05       0.05       25         OUTLET    
B8b              0.012      0.4        2          4          25         OUTLET    
B21ficticia      0.01       0.1        0.05       0.05       25         OUTLET    

[INFILTRATION]
;;Subcatchment   MaxRate    MinRate    Decay      DryTime    MaxInfil  
;;-------------- ---------- ---------- ---------- ---------- ----------
B1               3.0        0.5        4          7          0         
B10              3.0        0.5        4          7          0         
B11              3.0        0.5        4          7          0         
B12              3.0        0.5        4          7          0         
B13              3.0        0.5        4          7          0         
B14              3.0        0.5        4          7          0         
B15              3.0        0.5        4          7          0         
B16A             3.0        0.5        4          7          0         
B17              3.0        0.5        4          7          0         
B18              3.0        0.5        4          7          0         
B19              3.0        0.5        4          7          0         
B2               3.0        0.5        4          7          0         
B20              3.0        0.5        4          7          0         
B21              3.0        0.5        4          7          0         
B22              3.0        0.5        4          7          0         
B23              3.0        0.5        4          7          0         
B24              3.0        0.5        4          7          0         
B25              3.0        0.5        4          7          0         
B28              3.0        0.5        4          7          0         
B29              3.0        0.5        4          7          0         
B3               3.0        0.5        4          7          0         
B30              3.0        0.5        4          7          0         
B31              3.0        0.5        4          7          0         
B32              3.0        0.5        4          7          0         
B33A             3.0        0.5        4          7          0         
B34              3.0        0.5        4          7          0         
B35              3.0        0.5        4          7          0         
B36              3.0        0.5        4          7          0         
B37              3.0        0.5        4          7          0         
B4               3.0        0.5        4          7          0         
B5               3.0        0.5        4          7          0         
B6               3.0        0.5        4          7          0         
B7               3.0        0.5        4          7          0         
B8               3.0        0.5        4          7          0         
B9               3.0        0.5        4          7          0         
B26              3.0        0.5        4          7          0         
B27              3.0        0.5        4          7          0         
B33B             3.0        0.5        4          7          0         
B16B             3.0        0.5        4          7          0         
B8b              3.0        0.5        4          7          0         
B21ficticia      3.0        0.5        4          7          0         

[JUNCTIONS]
;;Name           Elevation  MaxDepth   InitDepth  SurDepth   Aponded   
;;-------------- ---------- ---------- ---------- ---------- ----------
3                0          2          0          0          0         
4                0.75       3.25       0          0          0         
5                0.55       2.25       0          0          0         
6                2.09       3.83       0          0          0         
7                0.88       4.4        0          0          0         
8                3.13       3.31       0          0          0         
9                1.3        2.4        0          0          0         
11               0.55       3.45       0          0          0         
12               0.5        3.45       0          0          0         
13               .45        4.5        0          0          0         
14               0.4        4.7        0          0          0         
16               3.1        2.50       0          0          0         
17               2.06       2.90       0          0          0         
18               1.95       8.21       0          0          0         
19               1.26       8.21       0          0          0         
20               1          2.85       0          0          0         
21               1          4.3        0          0          0         
23               0.4        3.1        0          0          0         
24               0.45       2          0          0          0         
25               0.2        4.8        0          0          0         
26               0.95       3.2        0          0          0         
27               -0.45      3.9        0          0          0         
28               16         3          0          0          0         
29               4.8        3          0          0          0         
30               0          3          0          0          0         
31               -1         3          0          0          0         
32               -1.5       3          0          0          0         
33               2          7          0          0          0         
34               1.8        6.25       0          0          0         
35               -1         6.3        0          0          0         
36               -1.5       6          0          0          0         
37               -2         4          0          0          0         
39               3          7.1        0          0          0         
41               0          2          0          0          0         
;ESta caixa adicional fica à espera dos dados de levantamento.
;O ponto de calibração será na extremidade de jusante do colector.
;ter em atenção a inclinação
44               1.704      2.16       0          0          0         
;A cota de soleira fica à espera do levantamento de cadastro
45               1.331      2.52       0          0          0         
46               2.677      3.15       0          0          0         
47               11.201     7.8        0          0          0         
48               11.3       7.6        0          0          0         
49               10         7          0          0          0         
51               0          2          0          0          0         
52               7.406      1.892      0          0          0         
53               5.857      3.297      0          0          0         
54               6.65       1.29       0          0          0         
55               6.95       1.09       0          0          0         
56               6.35       3.36       0          0          0         
57               8.211      8.5        0          0          0         
58               3.5        3.4        0          0          0         
59               -1.12      6.16       0          0          0         
60               4.70       3          0          0          0         
0701001000       3.02       3.06       0          0          0         
0701002000       2.68       3.32       0          0          0         
0701003000       2.29       3.46       0          0          0         
0701004000       1.97       3.72       0          0          0         
0701005000       1.43       2.55       0          0          0         
0701006000       0.66       2.85       0          0          0         
0701007000       -0.02      3.58       0          0          0         
0701007002       0.88       2.85       0          0          0         
0701007004       0.97       2.8        0          0          0         
0701007006       1.35       3.4        0          0          0         
0701007008       2.74       2.06       0          0          0         
0701008000       -0.27      4.41       0          0          0         
0701009000       -0.59      5.4        0          0          0         
0701010000       -0.84      5.61       0          0          0         
0701011000       -1.02      5.95       0          0          0         
0701012000       -1.27      6.28       0          0          0         
0701013000       -1.09      6.12       0          0          0         
0701014000       4.45       2.09       0          0          0         
0701015000       3.67       2.76       0          0          0         
0701016000       3.41       2.84       0          0          0         
0701016002       4.5        2.05       0          0          0         
0701017000       3.25       2.49       0          0          0         
0701018000       2.89       2.35       0          0          0         
0701019000       2.5        2.44       0          0          0         
0701020000       5.67       1.17       0          0          0         
0701021000       4.15       2.65       0          0          0         
0701021002       4.206      2.73       0          0          0         
0701021004       4.335      2.61       0          0          0         
0701022000       4.07       2.74       0          0          0         
0701022002       4.555      2.19       0          0          0         
0701023000       3.7        3.34       0          0          0         
0701024000       3.385      3.72       0          0          0         
0701025000       3.205      2.68       0          0          0         
0701026000       3.025      1.81       0          0          0         
0701027000       2.465      1.81       0          0          0         
0701027002       2.749      2.14       0          0          0         
0701027004       2.88       3.46       0          0          0         
0701027006       3.329      2.98       0          0          0         
0701028000       2.305      1.17       0          0          0         
0701029000       2.015      1.88       0          0          0         
0701030000       1.81       2.22       0          0          0         
0701031000       1.53       2.58       0          0          0         
0701032000       4.32       2.42       0          0          0         
0701033000       4.17       2.49       0          0          0         
0701034000       3.89       1.68       0          0          0         
0701034002       4.62       1.84       0          0          0         
0701034004       4.73       1.84       0          0          0         
0701035000       3.445      1.54       0          0          0         
0701035002       4.47       3.07       0          0          0         
0701035004       4.74       3.08       0          0          0         
0701035006       5.55       3.34       0          0          0         
0701035008       5.92       3.25       0          0          0         
0701036000       2.81       1.67       0          0          0         
0701037000       2.3        1.81       0          0          0         
0701037002       2.57       1.73       0          0          0         
0701037006       3.18       2.88       0          0          0         
0701038000       2.1        1.26       0          0          0         
0701039000       1.76       1.7        0          0          0         
0701040000       1.68       1.95       0          0          0         
0701041000       1.505      2.52       0          0          0         
0701042000       1.506      2.17       0          0          0         
0701043000       1.17       2.05       0          0          0         
0701044000       -2.7       6.3        0          0          0         
0701045000       1.67       2.01       0          0          0         
0701046000       1.44       2.21       0          0          0         
0701047000       1.09       2.6        0          0          0         
0701048000       0.45       3.19       0          0          0         
0701049000       0.23       3.12       0          0          0         
0701050000       -0.54      4.05       0          0          0         
0701051000       3.929      4.51       0          0          0         
0701052000       3.539      4.84       0          0          0         
0701053000       3.38       4          0          0          0         
0701054000       3.189      2.5        0          0          0         
0701055000       2.66       1.48       0          0          0         
0701056000       2.04       1.77       0          0          0         
0701057000       1.2        2.24       0          0          0         
0701058000       2.13       1.54       0          0          0         
0701059000       2.03       1.65       0          0          0         
0701060000       1.75       1.92       0          0          0         
0701061000       1.3        1.93       0          0          0         
0701062000       1.02       2.19       0          0          0         
0701063000       0.69       2.81       0          0          0         
0701064000       0.38       4.28       0          0          0         
0701065000       0.21       6.41       0          0          0         
0701066000       -0.1       5.22       0          0          0         
0701067000       -0.42      4.79       0          0          0         
0701068000       -0.7       5.12       0          0          0         
0701069000       -1.04      4.7        0          0          0         
0701070000       -1.46      5.14       0          0          0         
0701071000       -1.68      5.73       0          0          0         
0701072000       17.32      3.64       0          0          0         
0701073000       16.93      4.42       0          0          0         
0701074000       16.67      4.38       0          0          0         
0701075000       15.6       4.26       0          0          0         
0701076000       14.12      3.31       0          0          0         
0701077000       12.6       2.52       0          0          0         
0701078000       11.35      3.49       0          0          0         
0701079000       9.41       3.49       0          0          0         
0701080000       7.26       3.2        0          0          0         
0701081000       3.5        4.35       0          0          0         
0701082000       2.8        4.89       0          0          0         
0701083000       1.73       4.57       0          0          0         
0701084000       0.58       4.42       0          0          0         
0701085000       -0.34      4.67       0          0          0         
0701086000       -0.73      4.81       0          0          0         
0701088000       8.670      5.420      0          0          0         
0701089000       8.590      5.410      0          0          0         
0701090000       7.780      4.280      0          0          0         
0701091000       7.250      4.600      0          0          0         
0701092000       7.170      3.090      0          0          0         
0701093000       6.810      2.530      0          0          0         
0701094000       6.340      2.370      0          0          0         
0701095000       6.200      2.520      0          0          0         
0701096000       6.000      2.950      0          0          0         
0701097000       5.840      3.100      0          0          0         
0701098000       5.660      3.030      0          0          0         
0701099000       5.660      3.130      0          0          0         
0701100000       5.500      3.430      0          0          0         
0701101000       5.360      3.520      0          0          0         
0701102000       5.120      3.520      0          0          0         
0701103000       4.970      3.870      0          0          0         
0701104000       4.750      3.830      0          0          0         
0701105000       4.570      4.150      0          0          0         
0701106000       4.430      4.260      0          0          0         
0701107000       2.250      6.450      0          0          0         
0701108000       2.090      5.880      0          0          0         
0701109000       1.950      5.250      0          0          0         
0701110000       1.970      4.840      0          0          0         
0701111000       1.860      2.350      0          0          0         
0701112000       1.790      2.65       0          0          0         
0701113000       1.410      3.560      0          0          0         
0701114000       1.310      3.050      0          0          0         
0701115000       1.480      2.880      0          0          0         
0701116000       1.140      3.200      0          0          0         
0701117000       1.050      3.350      0          0          0         
0701118000       1.080      3.580      0          0          0         
0701119000       0.870      3.940      0          0          0         
0701120000       0.860      4.150      0          0          0         
0701121000       0.710      4.400      0          0          0         
0701122000       0.530      4.790      0          0          0         
0701123000       0.530      4.900      0          0          0         
0701124000       0.490      5.200      0          0          0         
0701125000       0.370      5.550      0          0          0         
0701126000       0.435      5.750      0          0          0         
0701127000       0.281      6.120      0          0          0         
0701128000       0.090      6.610      0          0          0         
0701129000       0.110      6.830      0          0          0         
0701130000       -0.075     7.200      0          0          0         
0701131000       -0.140     7.560      0          0          0         
0701132000       -0.225     7.790      0          0          0         
0701133000       -0.257     7.860      0          0          0         
0701134000       -0.253     7.940      0          0          0         
0701135000       -0.356     8.120      0          0          0         
0701136000       -0.464     8.130      0          0          0         
0701137000       -0.590     8.210      0          0          0         
0701138000       -0.710     7.510      0          0          0         
0701139000       -0.840     7.850      0          0          0         
0701140000       -1.150     7.750      0          0          0         
0701141000       -1.110     7.700      0          0          0         
0701142000       -1.200     8.240      0          0          0         
0701143000       -1.230     8.450      0          0          0         
0701144000       -1.280     8.700      0          0          0         
0701145000       -1.280     8.980      0          0          0         
0701146000       -1.440     9.070      0          0          0         
0701147000       -1.370     9.010      0          0          0         
0701148000       7.90       8.459      0          0          0         
0701151000       7.700      8.000      0          0          0         
0701152000       6.910      7.370      0          0          0         
0701153000       5.580      7.140      0          0          0         
0701154000       5.310      6.580      0          0          0         
0701155000       4.550      6.030      0          0          0         
0701156000       4.100      5.230      0          0          0         
0701157000       3.549      5.593      0          0          0         
0701158000       3.118      5.693      0          0          0         
0701159000       2.400      6.350      0          0          0         
0701160000       2.180      6.500      0          0          0         
0701161000       9.410      7.000      0          0          0         
0701162000       8.870      7.580      0          0          0         
0701163000       8.165      8.310      0          0          0         
0701164000       7.355      4.610      0          0          0         