[TITLE]
;;Project Title/Notes

[OPTIONS]
;;Option             Value
FLOW_UNITS           CFS
INFILTRATION         HORTON
FLOW_ROUTING         DYNWAVE
LINK_OFFSETS         DEPTH
MIN_SLOPE            0
ALLOW_PONDING        NO
SKIP_STEADY_STATE    NO

IGNORE_SNOWMELT      YES
IGNORE_QUALITY       YES
START_DATE           01/01/1995
START_TIME           00:00:00
REPORT_START_DATE    01/01/1995
REPORT_START_TIME    00:00:00
END_DATE             01/02/2001
END_TIME             00:00:00
SWEEP_START          01/01
SWEEP_END            12/31
DRY_DAYS             5.000000
REPORT_STEP          01:00:00
WET_STEP             00:05:00
DRY_STEP             01:00:00
ROUTING_STEP         0:01:00 

INERTIAL_DAMPING     NONE
NORMAL_FLOW_LIMITED  BOTH
FORCE_MAIN_EQUATION  H-W
VARIABLE_STEP        1.50
LENGTHENING_STEP     30
MIN_SURFAREA         0
MAX_TRIALS           0
HEAD_TOLERANCE       0
SYS_FLOW_TOL         5
LAT_FLOW_TOL         5
MINIMUM_STEP         0.5
THREADS              1

[EVAPORATION]
;;Data Source    Parameters
;;-------------- ----------------
MONTHLY          0.003000 0.007000 0.029000 0.074000 0.120000 0.166000 0.189000 0.171000 0.123000 0.065000 0.028000 0.007000
DRY_ONLY         YES

[RAINGAGES]
;;Name           Format    Interval SCF      Source    
;;-------------- --------- ------ ------ ----------
RG_10            INTENSITY 1:00     1.000000 FILE       "F:\My2015PC\Desktop\Rain_Lynchburg_1948_2010.dat" 445120     IN   

[SUBCATCHMENTS]
;;Name           Rain Gage        Outlet           Area     %Imperv  Width    %Slope   CurbLen  SnowPack        
;;-------------- ---------------- ---------------- -------- -------- -------- -------- -------- ----------------
BWC-1-COMB       RG_10            MH.BWC-1-COMB    22.675667 13.850000 313.771302 6.319136 0.000000                 
BWC-1-SAN        RG_10            MH.5762.03.042   0.053941 100.000000 78.322332 50.000000 0.000000                 
BWC-11-SAN       RG_10            MH.5562.02.100   1.282670 100.000000 1862.436840 50.000000 0.000000                 
BWC-12-COMB2     RG_10            MH.5560.01.044   2.057146 52.331400 598.000000 2.816901 0.000000                 
BWC-12-SAN       RG_10            MH.5561.03.046   0.518905 100.000000 753.450060 50.000000 0.000000                 
BWC-13-SAN       RG_10            MH.5560.03.053   1.335950 100.000000 1939.799400 50.000000 0.000000                 
BWC-14-COMB      RG_10            MH.BWC-14-COMB   30.065486 29.800000 2288.000000 4.893707 0.000000                 
BWC-14-SAN       RG_10            MH.5459.04.013   1.003120 100.000000 1456.530240 50.000000 0.000000                 
BWC-15-SAN       RG_10            MH.5559.01.099   5.025280 100.000000 7296.706560 50.000000 0.000000                 
BWC-16-SAN       RG_10            MH.BWC6.313      0.094287 100.000000 136.904724 50.000000 0.000000                 
BWC-2-COMB1      RG_10            MH.BWC-2-COMB1   12.165361 25.250000 254.770737 4.755618 0.000000                 
BWC-2-COMB2      RG_10            MH.BWC-2-COMB2   22.440237 14.600000 308.450000 4.604634 0.000000                 
BWC-2-SAN        RG_10            MH.5762.03.148   0.668633 100.000000 970.855116 50.000000 0.000000                 
BWC-3-COMB       RG_10            MH.BWC-3-COMB    5.485024 14.400000 229.517423 2.498118 0.000000                 
BWC-3-SAN        RG_10            MH.5662.02.138   0.159514 100.000000 231.614328 50.000000 0.000000                 
BWC-4-SAN1       RG_10            MH.5662.02.132   0.332974 100.000000 483.478248 50.000000 0.000000                 
BWC-4-SAN2       RG_10            MH.5662.02.121   0.522900 100.000000 759.250800 50.000000 0.000000                 
BWC-5-COMB       RG_10            MH.5662.04.009   6.631644 14.400000 166.530000 3.655826 0.000000                 
BWC-5-SAN        RG_10            MH.5662.04.003   0.059550 100.000000 86.466600 50.000000 0.000000                 
BWC-6-COMB1      RG_10            MH.BWC-6-COMB1   8.788894 14.100000 189.700000 3.938558 0.000000                 
BWC-6-COMB2      RG_10            MH.BWC-6-COMB2   36.145497 18.650000 768.797785 3.662878 0.000000                 
BWC-6-SAN        RG_10            MH.5662.03.067   1.140750 100.000000 1656.369000 50.000000 0.000000                 
BWC-7-COMB1      RG_10            MH.BWC-7-COMB1   19.943361 17.400000 317.400000 7.141379 0.000000                 
BWC-7-COMB2      RG_10            MH.5661.04.066   50.635892 18.850000 526.500000 3.755038 0.000000                 
BWC-7-SAN        RG_10            MH.5661.02.005   0.301100 100.000000 437.197200 50.000000 0.000000                 
BWC-8-SAN        RG_10            MH.5562.02.088   1.406410 100.000000 2042.107320 50.000000 0.000000                 
BWC-9-SAN        RG_10            MH.5561.02.084   0.371383 100.000000 539.248116 50.000000 0.000000                 
FC-1-COMB        RG_10            MH.5760.04.061   11.337178 36.600000 361.528159 4.525562 0.000000                 
FC-1-SAN         RG_10            MH.5860.03.023   0.027309 100.000000 39.652668 50.000000 0.000000                 
FC-10-COMB       RG_10            MH.FC-10-COMB    4.211817 7.800000 284.444559 5.313411 0.000000                 
FC-10-SAN        RG_10            MH.FC10.DWF_IN3  0.146609 100.000000 212.876268 50.000000 0.000000                 
FC-11-COMB       RG_10            MH.5660.04.137   6.050612 7.800000 188.935248 6.093190 0.000000                 
FC-11-SAN        RG_10            MH.5660.04.136   0.117836 100.000000 171.097872 50.000000 0.000000                 
FC-12-COMB       RG_10            MH.5660.03.156   41.655228 10.800000 890.334514 4.064015 0.000000                 
FC-13.0-COMB     RG_10            MH.5660.03.044   4.579351 17.200000 236.066887 2.807402 0.000000                 
FC-13.1-SAN      RG_10            MH.5660.03.045   0.058007 100.000000 84.226164 50.000000 0.000000                 
FC-13.2-SAN      RG_10            MH.5660.03.123   0.139309 100.000000 202.276668 50.000000 0.000000                 
FC-14-COMB       RG_10            MH.FC-14-COMB    18.932659 30.000000 1000.000000 5.140000 0.000000                 
FC-14-SAN        RG_10            MH.5659.03.066   0.528474 100.000000 767.344248 50.000000 0.000000                 
FC-15-SAN        RG_10            MH.FC15.DWF_IN4  0.922334 100.000000 1339.228968 50.000000 0.000000                 
FC-17-COMB       RG_10            MH.5660.04.085   4.569546 7.800000 264.341872 6.050687 0.000000                 
FC-2-SAN         RG_10            MH.5760.04.080   0.574200 100.000000 833.738400 50.000000 0.000000                 
FC-3-COMB1       RG_10            MH.FC-3-COMB1    7.247143 17.800000 267.984349 5.263158 0.000000                 
FC-3-COMB2       RG_10            MH.FC-3-COMB2    18.139704 16.800000 677.091277 5.733307 0.000000                 
FC-3-COMB3       RG_10            MH.FC-3-COMB2    0.671126 39.900000 36.680343 6.775408 0.000000                 
FC-3-SAN         RG_10            MH.5760.04.030   0.941994 100.000000 1367.775288 50.000000 0.000000                 
FC-4-COMB1       RG_10            MH.5760.04.013   14.726986 19.200000 371.028068 3.489937 0.000000                 
FC-4-COMB2       RG_10            MH.5760.03.066   8.030303 20.000000 290.290457 5.865347 0.000000                 
FC-4-SAN         RG_10            MH.5760.03.068   1.039690 100.000000 1509.629880 50.000000 0.000000                 
FC-5-COMB        RG_10            MH.5760.03.076   4.760387 16.500000 278.338860 7.516779 0.000000                 
FC-6-COMB        RG_10            MH.FC-6-COMB     1.596940 28.200000 134.290930 2.702703 0.000000                 
FC-62-SAN        RG_10            MH.5760.03.005   0.019473 100.000000 28.274796 50.000000 0.000000                 
FC-68-COMB       RG_10            MH.5660.04.020   17.542069 7.800000 331.798751 4.429006 0.000000                 
FC-68-SAN        RG_10            MH.5660.04.019   0.029971 100.000000 43.517892 50.000000 0.000000                 
FC-7-COMB        RG_10            MH.5660.02.S4    10.968570 32.000000 277.947008 3.181222 0.000000                 
FC-7-SAN         RG_10            MH.5660.04.S2    0.032719 100.000000 47.507988 50.000000 0.000000                 
FC-8-SAN         RG_10            MH.5660.04.110   0.094628 100.000000 137.399856 50.000000 0.000000                 
FC-9-COMB1       RG_10            MH.FC-9-COMB1    6.534771 7.800000 405.490943 3.297647 0.000000                 
FC-9-COMB2       RG_10            MH.FC-9-COMB2    14.558392 9.500000 471.847890 6.030725 0.000000                 
FC-9-SAN         RG_10            MH.5659.02.071   0.365610 100.000000 530.865720 50.000000 0.000000                 
IVY-1-COMB       RG_10            MH.IVY1.01       3.494676 42.837100 107.733956 5.195768 0.000000                 
IVY-1-SAN        RG_10            MH.5462.02.081   6.560300 100.000000 9525.555600 50.000000 0.000000                 
IVY-2-SAN        RG_10            MH.5362.04.073   0.039348 100.000000 57.133296 50.000000 0.000000                 
JRI1-1-SAN       RG_10            MH.5860.03.1-10  0.000000 25.000000 500.000000 0.500000 0.000000                 
; M_WWTP
JRI1-2-SAN       RG_10            MH.5860.01.2-21  0.000000 0.000000 500.000000 0.500000 0.000000                 
JRI2-1-SAN       RG_10            MH.5761.04.2-26A 0.000000 0.000000 500.000000 0.500000 0.000000                 
JRI2-1-SAN&COMB  RG_10            MH.5761.04.063   22.723602 10.000000 450.952205 7.934007 0.000000                 
JRI2-3-SAN       RG_10            MH.5761.04.3-319 0.013224 100.000000 19.201248 50.000000 0.000000                 
JRI3-1-SAN       RG_10            MH.5761.04.112   0.594487 100.000000 863.195124 50.000000 0.000000                 
JRI3-2-COMB      RG_10            MH.5761.02.3-713 24.748158 44.550000 541.451408 12.494973 0.000000                 
JRI3-2-SAN       RG_10            MH.5761.02.3-79  0.347263 100.000000 504.225876 50.000000 0.000000                 
JRI3-3-COMB      RG_10            MH.5761.02.050   3.933500 43.950000 119.071075 12.925643 0.000000                 
JRI3-3-SAN       RG_10            MH.5761.02.3-135 0.199305 100.000000 289.390860 50.000000 0.000000                 
JRI3-4-COMB1     RG_10            MH.5761.01.152   7.152181 48.350000 203.759985 11.641596 0.000000                 
JRI3-4-COMB2     RG_10            MH.5761.02.049   5.758994 42.600000 186.514318 14.275093 0.000000                 
JRI3-4-SAN       RG_10            MH.5761.01.153   0.855649 100.000000 1242.402348 50.000000 0.000000                 
JRI3-5-COMB      RG_10            MH.5761.01.134   54.448192 35.550000 621.531247 8.143532 0.000000                 
JRI3-5-SAN       RG_10            MH.5761.01.156   0.228521 100.000000 331.812492 50.000000 0.000000                 
JRI5-1-SAN       RG_10            MH.5762.01.054   0.059887 100.000000 86.955924 50.000000 0.000000                 
JRI5-2-SAN       RG_10            MH.5763.03.5-XX12 0.025469 100.000000 36.980988 50.000000 0.000000                 
JRI5-3-COMB1     RG_10            MH.JRI5-3-COMB1  5.657389 28.542200 306.131501 4.201090 0.000000                 
JRI5-3-COMB2     RG_10            MH.JRI5-3-COMB2  1.456335 49.172500 68.879418 2.931596 0.000000                 
JRI5-3-SAN       RG_10            MH.5663.02.5-717 0.185627 100.000000 269.530404 50.000000 0.000000                 
JRI6-1-COMB      RG_10            MH.JRI6-1-COMB   21.574691 20.700000 512.707870 4.360939 0.000000                 
JRI6-1-SAN       RG_10            MH.5663.02.6-893 0.094952 100.000000 137.870304 50.000000 0.000000                 
JRI6-2-SAN       RG_10            MH.5663.02.6-1105 0.044410 100.000000 64.483320 50.000000 0.000000                 
JRI6-3-SAN       RG_10            MH.5664.03.6-5168 0.072493 100.000000 105.259836 50.000000 0.000000                 
JRI6-4-COMB1     RG_10            MH.JRI6-4-COMB1  4.495402 26.700000 352.193744 5.842428 0.000000                 
JRI6-4-COMB2     RG_10            MH.JRI6-4-COMB1  25.742264 19.300000 975.072195 8.240649 0.000000                 
JRI6-4-SAN       RG_10            MH.5664.03.2185  0.313627 100.000000 455.386404 50.000000 0.000000                 
JRI6-5-SAN       RG_10            MH.5564.02.6-3125 3.542860 100.000000 5144.232720 50.000000 0.000000                 
OF11-SAN&COMB    RG_10            MH.5661.02.MH181 38.639083 16.350000 428.300000 4.642907 0.000000                 
OF116-COMB1      RG_10            MH.5661.04.047   36.932259 26.800000 536.100000 7.374787 0.000000                 
OF116-COMB2      RG_10            MH.OF116-COMB2   64.012183 18.550000 587.200000 3.062607 0.000000                 
OF125-SAN&COMB   RG_10            MH.5761.04.2-XX20 78.471719 28.500000 925.847261 5.092091 0.000000                 
OF125_STRM       RG_10            MH.125.STRM      54.698791 23.900000 982.548182 6.268041 0.000000                 
OF14-COMB        RG_10            MH.5660.03.141   56.636764 7.800000 1004.927666 4.796126 0.000000                 
OF15-COMB1       RG_10            MH.OF15-COMB1    5.448800 65.000000 287.696633 2.735308 0.000000                 
OF15-COMB2       RG_10            MH.OF15-COMB2    27.310925 38.000000 957.090836 5.106114 0.000000                 
OF15-SAN1        RG_10            MH.5660.02.MH364 2.273250 100.000000 3300.759000 50.000000 0.000000                 
OF15-SAN2        RG_10            MH.5660.02.S6    0.372274 100.000000 540.541848 50.000000 0.000000                 
OF17-COMB        RG_10            MH.5660.02.021   10.380548 12.100000 441.147969 4.587847 0.000000                 
OF33-COMB        RG_10            MH.5660.03.007   5.613765 7.800000 358.819695 3.434015 0.000000                 
OF34-COMB        RG_10            MH.5660.03.011   16.004739 9.900000 434.101153 2.446668 0.000000                 
; reduce area from 35.6 due to separation
OF44-COMB1.1     RG_10            MH.OF44-COMB1.1  7.000000 12.000000 550.000000 3.408059 0.000000                 
OF44-COMB1.2     RG_10            MH.OF44-COMB1.2  0.000000 19.300000 158.783188 2.824505 0.000000                 
OF44-COMB2       RG_10            MH.5663.03.058   52.634514 10.000000 545.000000 4.014138 0.000000                 
OF44-SAN1        RG_10            MH.5663.03.056   0.249681 100.000000 362.536812 50.000000 0.000000                 
OF44-SAN2        RG_10            MH.5663.03.094   1.498880 100.000000 2176.373760 50.000000 0.000000                 
OF48-COMB        RG_10            MH.5663.04.053   7.017543 30.377600 271.961023 4.840352 0.000000                 
; reduced aera from 20.81 due to separation
OF55-COMB        RG_10            MH.5663.04.140   10.000000 34.800000 738.776888 5.750056 0.000000                 
OF55-SAN         RG_10            MH.5663.04.CSO48.1 0.052758 100.000000 76.604616 50.000000 0.000000                 
OF56_SAN&COMB1   RG_10            MH.OF56_SAN&COMB1 162.760000 21.150000 1423.000000 3.383262 0.000000                 
OF56_SAN&COMB2   RG_10            MH.5761.03.HF9   87.907928 20.000000 948.700000 4.494118 0.000000                 
OF56_SAN&COMB3   RG_10            MH.5761.04.MH144 35.903590 37.850000 632.450000 6.850887 63.200000                 
OF61-SAN&COMB    RG_10            MH.5761.04.067   46.101825 10       1062.537297 6.819593 0.000000                 
OF62-COMB        RG_10            MH.5760.03.MH174 0.915240 35.300000 128.192458 6.430868 0.000000                 
OF62-SAN         RG_10            MH.5760.03.MH174 0.241849 100.000000 351.164748 50.000000 0.000000                 
OF66-COMB        RG_10            MH.5760.01.MH148 57.277908 19.900000 905.964302 2.836063 0.000000                 
OF66-SAN         RG_10            MH.5760.01.MH149 0.067794 100.000000 98.436888 50.000000 0.000000                 
OF68-COMB        RG_10            MH.5659.02.026   14.734453 6.500000 603.793750 4.212677 0.000000                 
OF68-SAN         RG_10            MH.5659.02.064   0.462125 100.000000 671.005500 50.000000 0.000000                 
OF70-COMB        RG_10            MH.OF70-COMB     47.630088 8.000000 3000.000000 4.151107 0.000000                 
OF70-SAN         RG_10            MH.5659.04.029   0.700000 100.000000 1016.821080 50.000000 0.000000                 
; reduce area to 0 from 23.848 Ac due to separation
OF98-COMB        RG_10            MH.OF98-COMB     0.000000 17.900000 820.545825 4.986332 0.000000                 
WWTP-1-SAN       RG_10            MH.5860.04.1-02  0.000000 25.000000 500.000000 0.500000 0.000000                 

[SUBAREAS]
;;Subcatchment   N-Imperv   N-Perv     S-Imperv   S-Perv     PctZero    RouteTo    PctRouted 
;;-------------- ---------- ---------- ---------- ---------- ---------- ---------- ----------
BWC-1-COMB       0.013000   0.150000   0.100000   0.150000   10.000000  OUTLET    
BWC-1-SAN        0.013000   0.150000   0.050000   0.150000   10.000000  OUTLET    
BWC-11-SAN       0.013000   0.150000   0.050000   0.150000   10.000000  OUTLET    
BWC-12-COMB2     0.013000   0.150000   0.050000   0.150000   10.000000  OUTLET    
BWC-12-SAN       0.013000   0.150000   0.050000   0.150000   10.000000  OUTLET    
BWC-13-SAN       0.013000   0.150000   0.050000   0.150000   10.000000  OUTLET    
BWC-14-COMB      0.013000   0.150000   0.050000   0.150000   10.000000  OUTLET    
BWC-14-SAN       0.013000   0.150000   0.050000   0.150000   10.000000  OUTLET    
BWC-15-SAN       0.013000   0.150000   0.050000   0.150000   10.000000  OUTLET    
BWC-16-SAN       0.013000   0.150000   0.050000   0.150000   10.000000  OUTLET    
BWC-2-COMB1      0.013000   0.150000   0.100000   0.150000   10.000000  OUTLET    
BWC-2-COMB2      0.013000   0.150000   0.100000   0.150000   10.000000  OUTLET    
BWC-2-SAN        0.013000   0.150000   0.050000   0.150000   10.000000  OUTLET    
BWC-3-COMB       0.013000   0.150000   0.100000   0.150000   10.000000  OUTLET    
BWC-3-SAN        0.013000   0.150000   0.050000   0.150000   10.000000  OUTLET    
BWC-4-SAN1       0.013000   0.150000   0.050000   0.150000   10.000000  OUTLET    
BWC-4-SAN2       0.013000   0.150000   0.050000   0.150000   10.000000  OUTLET    
BWC-5-COMB       0.013000   0.150000   0.100000   0.150000   10.000000  OUTLET    
BWC-5-SAN        0.013000   0.150000   0.050000   0.150000   10.000000  OUTLET    
BWC-6-COMB1      0.013000   0.150000   0.100000   0.150000   10.000000  OUTLET    
BWC-6-COMB2      0.013000   0.150000   0.100000   0.150000   10.000000  OUTLET    
BWC-6-SAN        0.013000   0.150000   0.050000   0.150000   10.000000  OUTLET    
BWC-7-COMB1      0.013000   0.150000   0.100000   0.150000   10.000000  OUTLET    
BWC-7-COMB2      0.013000   0.150000   0.100000   0.150000   10.000000  OUTLET    
BWC-7-SAN        0.013000   0.150000   0.050000   0.150000   10.000000  OUTLET    
BWC-8-SAN        0.013000   0.150000   0.050000   0.150000   10.000000  OUTLET    
BWC-9-SAN        0.013000   0.150000   0.050000   0.150000   10.000000  OUTLET    
FC-1-COMB        0.013000   0.150000   0.050000   0.150000   10.000000  OUTLET    
FC-1-SAN         0.013000   0.150000   0.050000   0.150000   10.000000  OUTLET    
FC-10-COMB       0.013000   0.150000   0.050000   0.150000   10.000000  OUTLET    
FC-10-SAN        0.013000   0.150000   0.050000   0.150000   10.000000  OUTLET    
FC-11-COMB       0.013000   0.150000   0.050000   0.150000   10.000000  OUTLET    
FC-11-SAN        0.013000   0.150000   0.050000   0.150000   10.000000  OUTLET    
FC-12-COMB       0.013000   0.150000   0.050000   0.150000   10.000000  OUTLET    
FC-13.0-COMB     0.013000   0.150000   0.050000   0.150000   10.000000  OUTLET    
FC-13.1-SAN      0.013000   0.150000   0.050000   0.150000   10.000000  OUTLET    
FC-13.2-SAN      0.013000   0.150000   0.050000   0.150000   10.000000  OUTLET    
FC-14-COMB       0.013000   0.150000   0.050000   0.150000   10.000000  OUTLET    
FC-14-SAN        0.013000   0.150000   0.050000   0.150000   10.000000  OUTLET    
FC-15-SAN        0.013000   0.150000   0.050000   0.150000   10.000000  OUTLET    
FC-17-COMB       0.013000   0.150000   0.050000   0.150000   10.000000  OUTLET    
FC-2-SAN         0.013000   0.150000   0.050000   0.150000   10.000000  OUTLET    
FC-3-COMB1       0.013000   0.150000   0.050000   0.150000   10.000000  OUTLET    
FC-3-COMB2       0.013000   0.150000   0.050000   0.150000   10.000000  OUTLET    
FC-3-COMB3       0.013000   0.150000   0.050000   0.150000   10.000000  OUTLET    
FC-3-SAN         0.013000   0.150000   0.050000   0.150000   10.000000  OUTLET    
FC-4-COMB1       0.013000   0.150000   0.050000   0.150000   10.000000  OUTLET    
FC-4-COMB2       0.013000   0.150000   0.050000   0.150000   10.000000  OUTLET    
FC-4-SAN         0.013000   0.150000   0.050000   0.150000   10.000000  OUTLET    
FC-5-COMB        0.013000   0.150000   0.050000   0.150000   10.000000  OUTLET    
FC-6-COMB        0.013000   0.150000   0.050000   0.150000   10.000000  OUTLET    
FC-62-SAN        0.013000   0.150000   0.050000   0.150000   10.000000  OUTLET    
FC-68-COMB       0.013000   0.150000   0.050000   0.150000   10.000000  OUTLET    
FC-68-SAN        0.013000   0.150000   0.050000   0.150000   10.000000  OUTLET    
FC-7-COMB        0.013000   0.150000   0.010000   0.150000   10.000000  OUTLET    
FC-7-SAN         0.013000   0.150000   0.010000   0.150000   10.000000  OUTLET    
FC-8-SAN         0.013000   0.150000   0.050000   0.150000   10.000000  OUTLET    
FC-9-COMB1       0.013000   0.150000   0.050000   0.150000   10.000000  OUTLET    
FC-9-COMB2       0.013000   0.150000   0.050000   0.150000   10.000000  OUTLET    
FC-9-SAN         0.013000   0.150000   0.050000   0.150000   10.000000  OUTLET    
IVY-1-COMB       0.013000   0.150000   0.050000   0.150000   10.000000  OUTLET    
IVY-1-SAN        0.013000   0.150000   0.200000   0.150000   10.000000  OUTLET    
IVY-2-SAN        0.013000   0.150000   0.050000   0.150000   10.000000  OUTLET    
JRI1-1-SAN       0.100000   0.001000   0.050000   0.050000   25.000000  OUTLET    
JRI1-2-SAN       0.100000   0.001000   0.050000   0.050000   25.000000  OUTLET    
JRI2-1-SAN       0.013000   0.150000   0.050000   0.150000   25.000000  OUTLET    
JRI2-1-SAN&COMB  0.013000   0.150000   0.05       0.150000   10.000000  OUTLET    
JRI2-3-SAN       0.013000   0.150000   0.050000   0.150000   10.000000  OUTLET    
JRI3-1-SAN       0.013000   0.150000   0.050000   0.150000   10.000000  OUTLET    
JRI3-2-COMB      0.013000   0.150000   0.050000   0.150000   10.000000  OUTLET    
JRI3-2-SAN       0.013000   0.150000   0.050000   0.150000   10.000000  OUTLET    
JRI3-3-COMB      0.013000   0.150000   0.050000   0.150000   10.000000  OUTLET    
JRI3-3-SAN       0.013000   0.150000   0.050000   0.150000   10.000000  OUTLET    
JRI3-4-COMB1     0.013000   0.150000   0.050000   0.150000   10.000000  OUTLET    
JRI3-4-COMB2     0.013000   0.150000   0.050000   0.150000   10.000000  OUTLET    
JRI3-4-SAN       0.013000   0.150000   0.050000   0.150000   10.000000  OUTLET    
JRI3-5-COMB      0.013000   0.150000   0.100000   0.150000   10.000000  OUTLET    
JRI3-5-SAN       0.013000   0.150000   0.050000   0.150000   10.000000  OUTLET    
JRI5-1-SAN       0.013000   0.150000   0.050000   0.150000   10.000000  OUTLET    
JRI5-2-SAN       0.013000   0.150000   0.050000   0.150000   10.000000  OUTLET    
JRI5-3-COMB1     0.013000   0.150000   0.050000   0.150000   10.000000  OUTLET    
JRI5-3-COMB2     0.013000   0.150000   0.050000   0.150000   10.000000  OUTLET    
JRI5-3-SAN       0.013000   0.150000   0.050000   0.150000   10.000000  OUTLET    
JRI6-1-COMB      0.013000   0.150000   0.050000   0.150000   10.000000  OUTLET    
JRI6-1-SAN       0.013000   0.150000   0.050000   0.150000   10.000000  OUTLET    
JRI6-2-SAN       0.013000   0.150000   0.050000   0.150000   10.000000  OUTLET    
JRI6-3-SAN       0.013000   0.150000   0.050000   0.150000   10.000000  OUTLET    
JRI6-4-COMB1     0.013000   0.150000   0.050000   0.150000   10.000000  OUTLET    
JRI6-4-COMB2     0.013000   0.150000   0.050000   0.150000   10.000000  OUTLET    
JRI6-4-SAN       0.013000   0.150000   0.050000   0.150000   10.000000  OUTLET    
JRI6-5-SAN       0.013000   0.150000   0.050000   0.150000   10.000000  OUTLET    
OF11-SAN&COMB    0.013000   0.150000   0.100000   0.150000   10.000000  OUTLET    
OF116-COMB1      0.013000   0.150000   0.100000   0.150000   10.000000  OUTLET    
OF116-COMB2      0.013000   0.150000   0.100000   0.150000   10.000000  OUTLET    
OF125-SAN&COMB   0.013000   0.150000   0.050000   0.150000   10.000000  OUTLET    
OF125_STRM       0.013000   0.150000   0.050000   0.150000   10.000000  OUTLET    
OF14-COMB        0.013000   0.150000   0.050000   0.150000   10.000000  OUTLET    
OF15-COMB1       0.013000   0.150000   0.010000   0.150000   10.000000  OUTLET    
OF15-COMB2       0.013000   0.150000   0.010000   0.150000   10.000000  OUTLET    
OF15-SAN1        0.013000   0.150000   0.010000   0.050000   10.000000  OUTLET    
OF15-SAN2        0.013000   0.150000   0.010000   0.050000   10.000000  OUTLET    
OF17-COMB        0.013000   0.150000   0.050000   0.150000   10.000000  OUTLET    
OF33-COMB        0.013000   0.150000   0.050000   0.150000   10.000000  OUTLET    
OF34-COMB        0.013000   0.150000   0.050000   0.150000   10.000000  OUTLET    
OF44-COMB1.1     0.013000   0.150000   0.100000   0.150000   10.000000  OUTLET    
OF44-COMB1.2     0.013000   0.150000   0.050000   0.150000   10.000000  OUTLET    
OF44-COMB2       0.013000   0.150000   0.100000   0.150000   10.000000  OUTLET    
OF44-SAN1        0.013000   0.150000   0.050000   0.150000   10.000000  OUTLET    
OF44-SAN2        0.013000   0.150000   0.050000   0.150000   10.000000  OUTLET    
OF48-COMB        0.013000   0.150000   0.050000   0.150000   10.000000  OUTLET    
OF55-COMB        0.013000   0.150000   0.050000   0.150000   10.000000  OUTLET    
OF55-SAN         0.013000   0.150000   0.050000   0.150000   10.000000  OUTLET    
OF56_SAN&COMB1   0.013000   0.150000   0.050000   0.150000   10.000000  OUTLET    
OF56_SAN&COMB2   0.013000   0.150000   0.050000   0.150000   10.000000  OUTLET    
OF56_SAN&COMB3   0.013000   0.150000   0.050000   0.150000   10.000000  OUTLET    
OF61-SAN&COMB    0.013000   0.150000   0.05       0.150000   10.000000  OUTLET    
OF62-COMB        0.013000   0.150000   0.050000   0.150000   10.000000  OUTLET    
OF62-SAN         0.013000   0.150000   0.050000   0.150000   10.000000  OUTLET    
OF66-COMB        0.013000   0.150000   0.050000   0.150000   10.000000  OUTLET    
OF66-SAN         0.013000   0.150000   0.050000   0.150000   10.000000  OUTLET    
OF68-COMB        0.013000   0.150000   0.050000   0.150000   10.000000  OUTLET    
OF68-SAN         0.013000   0.150000   0.050000   0.150000   10.000000  OUTLET    
OF70-COMB        0.013000   0.150000   0.030000   0.100000   10.000000  OUTLET    
OF70-SAN         0.013000   0.150000   0.030000   0.100000   10.000000  OUTLET    
OF98-COMB        0.013000   0.150000   0.050000   0.150000   10.000000  OUTLET    
WWTP-1-SAN       0.100000   0.001000   0.050000   0.050000   25.000000  OUTLET    

[INFILTRATION]
;;Subcatchment   MaxRate    MinRate    Decay      DryTime    MaxInfil  
;;-------------- ---------- ---------- ---------- ---------- ----------
BWC-1-COMB       3.0        0.5        4          7          0         
BWC-1-SAN        3.0        0.5        4          7          0         
BWC-11-SAN       3.0        0.5        4          7          0         
BWC-12-COMB2     3.0        0.5        4          7          0         
BWC-12-SAN       3.0        0.5        4          7          0         
BWC-13-SAN       3.0        0.5        4          7          0         
BWC-14-COMB      3.0        0.5        4          7          0         
BWC-14-SAN       3.0        0.5        4          7          0         
BWC-15-SAN       3.0        0.5        4          7          0         
BWC-16-SAN       3.0        0.5        4          7          0         
BWC-2-COMB1      3.0        0.5        4          7          0         
BWC-2-COMB2      3.0        0.5        4          7          0         
BWC-2-SAN        3.0        0.5        4          7          0         
BWC-3-COMB       3.0        0.5        4          7          0         
BWC-3-SAN        3.0        0.5        4          7          0         
BWC-4-SAN1       3.0        0.5        4          7          0         
BWC-4-SAN2       3.0        0.5        4          7          0         
BWC-5-COMB       3.0        0.5        4          7          0         
BWC-5-SAN        3.0        0.5        4          7          0         
BWC-6-COMB1      3.0        0.5        4          7          0         
BWC-6-COMB2      3.0        0.5        4          7          0         
BWC-6-SAN        3.0        0.5        4          7          0         
BWC-7-COMB1      3.0        0.5        4          7          0         
BWC-7-COMB2      3.0        0.5        4          7          0         
BWC-7-SAN        3.0        0.5        4          7          0         
BWC-8-SAN        3.0        0.5        4          7          0         
BWC-9-SAN        3.0        0.5        4          7          0         
FC-1-COMB        3.0        0.5        4          7          0         
FC-1-SAN         3.0        0.5        4          7          0         
FC-10-COMB       3.0        0.5        4          7          0         
FC-10-SAN        3.0        0.5        4          7          0         
FC-11-COMB       3.0        0.5        4          7          0         
FC-11-SAN        3.0        0.5        4          7          0         
FC-12-COMB       3.0        0.5        4          7          0         
FC-13.0-COMB     3.0        0.5        4          7          0         