[TITLE]
;;Project Title/Notes

[OPTIONS]
;;Option             Value
FLOW_UNITS           CFS
INFILTRATION         HORTON
FLOW_ROUTING         DYNWAVE
LINK_OFFSETS         DEPTH
MIN_SLOPE            0
ALLOW_PONDING        NO
SKIP_STEADY_STATE    NO

IGNORE_SNOWMELT      YES
IGNORE_QUALITY       YES
START_DATE           04/01/2010
START_TIME           00:00:00
REPORT_START_DATE    04/01/2010
REPORT_START_TIME    00:00:00
END_DATE             06/15/2010
END_TIME             23:55:00
SWEEP_START          01/01
SWEEP_END            12/31
DRY_DAYS             5
REPORT_STEP          00:05:00
WET_STEP             00:01:00
DRY_STEP             01:00:00
ROUTING_STEP         0:00:10 

INERTIAL_DAMPING     NONE
NORMAL_FLOW_LIMITED  BOTH
FORCE_MAIN_EQUATION  H-W
VARIABLE_STEP        0.75
LENGTHENING_STEP     10
MIN_SURFAREA         0
MAX_TRIALS           0
HEAD_TOLERANCE       0
SYS_FLOW_TOL         5
LAT_FLOW_TOL         5
MINIMUM_STEP         0.5
THREADS              1

[EVAPORATION]
;;Data Source    Parameters
;;-------------- ----------------
MONTHLY          0.0029 0.0068 0.029  0.074  0.12   0.166  0.189  0.171  0.123  0.065  0.028  0.0074
DRY_ONLY         YES

[RAINGAGES]
;;Name           Format    Interval SCF      Source    
;;-------------- --------- ------ ------ ----------
RG_10            VOLUME    0:05     1.0      FILE       "F:\My2015PC\aus\AllGages.txt" RG_CHFP    IN   
; Artificial
RG_BWC11         VOLUME    0:05     1.0      FILE       "F:\My2015PC\aus\AllGages.txt" RG_BWC11   IN   
; Artificial
RG_BWC12         VOLUME    0:05     1.0      FILE       "F:\My2015PC\aus\AllGages.txt" RG_BWC12   IN   
; Artificial
RG_BWC14         VOLUME    0:05     1.0      FILE       "F:\My2015PC\aus\AllGages.txt" RG_BWC14   IN   
; Artificial
RG_BWC15         VOLUME    0:05     1.0      FILE       "F:\My2015PC\aus\AllGages.txt" RG_BWC15   IN   
; Artificial
RG_BWC16         VOLUME    0:05     1.0      FILE       "F:\My2015PC\aus\AllGages.txt" RG_BWC16   IN   
; Artificial
RG_BWC8          VOLUME    0:05     1.0      FILE       "F:\My2015PC\aus\AllGages.txt" RG_BWC8    IN   
; Artificial
RG_BWC9          VOLUME    0:05     1.0      FILE       "F:\My2015PC\aus\AllGages.txt" RG_BWC9    IN   
; College Hill Filter Plant
RG_CHFP          VOLUME    0:05     1.0      FILE       "F:\My2015PC\aus\AllGages.txt" RG_CHFP    IN   
; Artificial
RG_FC1           VOLUME    0:05     1.0      FILE       "F:\My2015PC\aus\AllGages.txt" RG_FC1     IN   
; Artificial
RG_FC10          VOLUME    0:05     1.0      FILE       "F:\My2015PC\aus\AllGages.txt" RG_FC10    IN   
; Artificial
RG_FC12C         VOLUME    0:05     1.0      FILE       "F:\My2015PC\aus\AllGages.txt" RG_FC12C   IN   
; Artificial
RG_FC12S         VOLUME    0:05     1.0      FILE       "F:\My2015PC\aus\AllGages.txt" RG_FC12S   IN   
; Artificial
RG_FC13          VOLUME    0:05     1.0      FILE       "F:\My2015PC\aus\AllGages.txt" RG_FC13    IN   
; Artificial
RG_FC2           VOLUME    0:05     1.0      FILE       "F:\My2015PC\aus\AllGages.txt" RG_FC2     IN   
; Artificial
RG_FC3           VOLUME    0:05     1.0      FILE       "F:\My2015PC\aus\AllGages.txt" RG_FC3     IN   
; Artificial
RG_FC4C          VOLUME    0:05     1.0      FILE       "F:\My2015PC\aus\AllGages.txt" RG_FC4C    IN   
; Artificial
RG_FC4S          VOLUME    0:05     1.0      FILE       "F:\My2015PC\aus\AllGages.txt" RG_FC4S    IN   
; Artificial
RG_FC62          VOLUME    0:05     1.0      FILE       "F:\My2015PC\aus\AllGages.txt" RG_FC62    IN   
; Artificial
RG_FC68C         VOLUME    0:05     1.0      FILE       "F:\My2015PC\aus\AllGages.txt" RG_FC68C   IN   
; Artificial
RG_FC68S         VOLUME    0:05     1.0      FILE       "F:\My2015PC\aus\AllGages.txt" RG_FC68S   IN   
; Artificial
RG_FC6C          VOLUME    0:05     1.0      FILE       "F:\My2015PC\aus\AllGages.txt" RG_FC6C    IN   
; Artificial
RG_FC6S          VOLUME    0:05     1.0      FILE       "F:\My2015PC\aus\AllGages.txt" RG_FC6S    IN   
; Artificial
RG_FC8           VOLUME    0:05     1.0      FILE       "F:\My2015PC\aus\AllGages.txt" RG_FC8     IN   
; Artificial
RG_FC9           VOLUME    0:05     1.0      FILE       "F:\My2015PC\aus\AllGages.txt" RG_FC9     IN   
; Artificial
RG_IVY1          VOLUME    0:05     1.0      FILE       "F:\My2015PC\aus\AllGages.txt" RG_IVY1    IN   
; Artificial
RG_IVY2          VOLUME    0:05     1.0      FILE       "F:\My2015PC\aus\AllGages.txt" RG_IVY2    IN   
; Artificial
RG_JRI1-2        VOLUME    0:05     1.0      FILE       "F:\My2015PC\aus\AllGages.txt" RG_JRI1-2  IN   
; Artificial
RG_JRI2-1S       VOLUME    0:05     1.0      FILE       "F:\My2015PC\aus\AllGages.txt" RG_JRI2-1S IN   
; Artificial
RG_JRI2-1SC      VOLUME    0:05     1.0      FILE       "F:\My2015PC\aus\AllGages.txt" RG_JRI2-1SC IN   
; Artificial
RG_JRI6-3        VOLUME    0:05     1.0      FILE       "F:\My2015PC\aus\AllGages.txt" RG_JRI6-3  IN   
; Artificial
RG_JRI6-4        VOLUME    0:05     1.0      FILE       "F:\My2015PC\aus\AllGages.txt" RG_JRI6-4  IN   
; Artificial
RG_JRI6-6        VOLUME    0:05     1.0      FILE       "F:\My2015PC\aus\AllGages.txt" RG_JRI6-6  IN   
; Schewell Hall, Lynchburg College near College Street (ADS RG
RG_LCSH          VOLUME    0:05     1.0      FILE       "F:\My2015PC\aus\AllGages.txt" RG_LCSH    IN   
; Linkhorne Elementary School 2501 Linkhorne Drive (ADS RG#3)
RG_LES           VOLUME    0:05     1.0      FILE       "F:\My2015PC\aus\AllGages.txt" RG_LES     IN   
; Liberty University Dormitory at 3436 Odd Fellows Road (ADS R
RG_LUD           VOLUME    0:05     1.0      FILE       "F:\My2015PC\aus\AllGages.txt" RG_LUD     IN   
; Artificial
RG_OF14          VOLUME    0:05     1.0      FILE       "F:\My2015PC\aus\AllGages.txt" RG_OF14    IN   
; Artificial
RG_OF34C         VOLUME    0:05     1.0      FILE       "F:\My2015PC\aus\AllGages.txt" RG_OF34C   IN   
; Artificial
RG_OF34S         VOLUME    0:05     1.0      FILE       "F:\My2015PC\aus\AllGages.txt" RG_OF34S   IN   
; Artificial
RG_OF44          VOLUME    0:05     1.0      FILE       "F:\My2015PC\aus\AllGages.txt" RG_OF44    IN   
; Artificial
RG_OF61          VOLUME    0:05     1.0      FILE       "F:\My2015PC\aus\AllGages.txt" RG_OF61    IN   
; Artificial
RG_OF62          VOLUME    0:05     1.0      FILE       "F:\My2015PC\aus\AllGages.txt" RG_OF62    IN   
; Artificial
RG_OF98          VOLUME    0:05     1.0      FILE       "F:\My2015PC\aus\AllGages.txt" RG_OF98    IN   
; Peaksview Park near Ardmore entrance, 1147 Ardmore Drive (AD
RG_PPA           VOLUME    0:05     1.0      FILE       "F:\My2015PC\aus\AllGages.txt" RG_PPA     IN   
; Wiley|Wilson at 127 Nationwide Drive (ADS RG#1)
RG_WW            VOLUME    0:05     1.0      FILE       "F:\My2015PC\aus\AllGages.txt" RG_WW      IN   
; Lynchburg Regional WWTP
RG_WWTP          VOLUME    0:05     1.0      FILE       "F:\My2015PC\aus\AllGages.txt" RG_WWTP    IN   
; raingage for RDII metershed
RG_M70INF        VOLUME    0:05     1.0      FILE       "F:\My2015PC\aus\AllGages.txt" RG_M70INF  IN   
; raingage for RDII metershed
RG_MFC1          VOLUME    0:05     1.0      FILE       "F:\My2015PC\aus\AllGages.txt" RG_MFC1    IN   
; raingage for RDII metershed
RG_MFC10         VOLUME    0:05     1.0      FILE       "F:\My2015PC\aus\AllGages.txt" RG_MFC10   IN   
; raingage for RDII metershed
RG_MFC2          VOLUME    0:05     1.0      FILE       "F:\My2015PC\aus\AllGages.txt" RG_MFC2    IN   
; raingage for RDII metershed
RG_MFC3          VOLUME    0:05     1.0      FILE       "F:\My2015PC\aus\AllGages.txt" RG_MFC3    IN   
; raingage for RDII metershed
RG_MFC5          VOLUME    0:05     1.0      FILE       "F:\My2015PC\aus\AllGages.txt" RG_MFC5    IN   
; raingage for RDII metershed
RG_MFC6          VOLUME    0:05     1.0      FILE       "F:\My2015PC\aus\AllGages.txt" RG_MFC6    IN   
; raingage for RDII metershed
RG_MFC9          VOLUME    0:05     1.0      FILE       "F:\My2015PC\aus\AllGages.txt" RG_MFC9    IN   
; raingage for RDII metershed
RG_M100INF       VOLUME    0:05     1.0      FILE       "F:\My2015PC\aus\AllGages.txt" RG_M100INF IN   
; raingage for RDII metershed
RG_M125INF1      VOLUME    0:05     1.0      FILE       "F:\My2015PC\aus\AllGages.txt" RG_M125INF1 IN   
; raingage for RDII metershed
RG_M12X          VOLUME    0:05     1.0      FILE       "F:\My2015PC\aus\AllGages.txt" RG_M12X    IN   
; raingage for RDII metershed
RG_M52INF        VOLUME    0:05     1.0      FILE       "F:\My2015PC\aus\AllGages.txt" RG_M52INF  IN   
; raingage for RDII metershed
RG_M56INF1       VOLUME    0:05     1.0      FILE       "F:\My2015PC\aus\AllGages.txt" RG_M56INF1 IN   
; raingage for RDII metershed
RG_M56INT        VOLUME    0:05     1.0      FILE       "F:\My2015PC\aus\AllGages.txt" RG_M56INT  IN   
; raingage for RDII metershed
RG_M59INF2       VOLUME    0:05     1.0      FILE       "F:\My2015PC\aus\AllGages.txt" RG_M59INF2 IN   
; raingage for RDII metershed
RG_M5X           VOLUME    0:05     1.0      FILE       "F:\My2015PC\aus\AllGages.txt" RG_M5X     IN   
; raingage for RDII metershed
RG_M6X           VOLUME    0:05     1.0      FILE       "F:\My2015PC\aus\AllGages.txt" RG_M6X     IN   
; raingage for RDII metershed
RG_MBWC1         VOLUME    0:05     1.0      FILE       "F:\My2015PC\aus\AllGages.txt" RG_MBWC1   IN   
; raingage for RDII metershed
RG_MBWC1D        VOLUME    0:05     1.0      FILE       "F:\My2015PC\aus\AllGages.txt" RG_MBWC1D  IN   
; raingage for RDII metershed
RG_MBWC2         VOLUME    0:05     1.0      FILE       "F:\My2015PC\aus\AllGages.txt" RG_MBWC2   IN   
; raingage for RDII metershed
RG_MBWC3         VOLUME    0:05     1.0      FILE       "F:\My2015PC\aus\AllGages.txt" RG_MBWC3   IN   
; raingage for RDII metershed
RG_MBWC4         VOLUME    0:05     1.0      FILE       "F:\My2015PC\aus\AllGages.txt" RG_MBWC4   IN   
; raingage for RDII metershed
RG_MBWC6         VOLUME    0:05     1.0      FILE       "F:\My2015PC\aus\AllGages.txt" RG_MBWC6   IN   
; raingage for RDII metershed
RG_MIVY1         VOLUME    0:05     1.0      FILE       "F:\My2015PC\aus\AllGages.txt" RG_MIVY1   IN   
; raingage for RDII metershed
RG_MIVY2         VOLUME    0:05     1.0      FILE       "F:\My2015PC\aus\AllGages.txt" RG_MIVY2   IN   
; raingage for RDII metershed
RG_MJRI1         VOLUME    0:05     1.0      FILE       "F:\My2015PC\aus\AllGages.txt" RG_MJRI1   IN   
; raingage for RDII metershed
RG_MJRI2         VOLUME    0:05     1.0      FILE       "F:\My2015PC\aus\AllGages.txt" RG_MJRI2   IN   
; raingage for RDII metershed
RG_MJRI3         VOLUME    0:05     1.0      FILE       "F:\My2015PC\aus\AllGages.txt" RG_MJRI3   IN   
; raingage for RDII metershed
RG_MUJRI2        VOLUME    0:05     1.0      FILE       "F:\My2015PC\aus\AllGages.txt" RG_MUJRI2  IN   
; raingage for RDII metershed
RG_MUJRI4        VOLUME    0:05     1.0      FILE       "F:\My2015PC\aus\AllGages.txt" RG_MUJRI4  IN   
; raingage for RDII metershed
RG_MUJRI5        VOLUME    0:05     1.0      FILE       "F:\My2015PC\aus\AllGages.txt" RG_MUJRI5  IN   

[SUBCATCHMENTS]
;;Name           Rain Gage        Outlet           Area     %Imperv  Width    %Slope   CurbLen  SnowPack        
;;-------------- ---------------- ---------------- -------- -------- -------- -------- -------- ----------------
BWC-11-SAN       RG_BWC11         MH.5562.02.100   1.28267  100      1862.43684 50       0                        
BWC-12-COMB2     RG_LCSH          MH.5560.01.044   2.057146 52.3314  598      2.816901 0                        
BWC-12-SAN       RG_BWC12         MH.5561.03.046   0.518905 100      753.45006 50       0                        
BWC-13-SAN       RG_LCSH          MH.5560.03.053   1.33595  100      1939.7994 50       0                        
BWC-14-COMB      RG_LCSH          MH.BWC-14-COMB   30.065486 29.8     2288     4.893707 0                        
BWC-14-SAN       RG_BWC14         MH.5459.04.013   1.00312  100      1456.53024 50       0                        
BWC-15-SAN       RG_BWC15         MH.5559.01.099   5.02528  100      7296.70656 50       0                        
BWC-16-SAN       RG_BWC16         MH.BWC6.313      0.094287 100      136.904724 50       0                        
BWC-1-COMB       RG_CHFP          MH.BWC-1-COMB    22.675667 13.85    313.771302 6.319136 0                        
BWC-1-SAN        RG_CHFP          MH.5762.03.042   0.053941 100      78.322332 50       0                        
BWC-2-COMB1      RG_CHFP          MH.BWC-2-COMB1   12.165361 25.25    254.770737 4.755618 0                        
BWC-2-COMB2      RG_CHFP          MH.BWC-2-COMB2   22.440237 14.6     308.45   4.604634 0                        
BWC-2-SAN        RG_CHFP          MH.5762.03.148   0.668633 100      970.855116 50       0                        
BWC-3-COMB       RG_CHFP          MH.BWC-3-COMB    5.485024 14.4     229.517423 2.498118 0                        
BWC-3-SAN        RG_CHFP          MH.5662.02.138   0.159514 100      231.614328 50       0                        
BWC-4-SAN1       RG_CHFP          MH.5662.02.132   0.332974 100      483.478248 50       0                        
BWC-4-SAN2       RG_CHFP          MH.5662.02.121   0.5229   100      759.2508 50       0                        
BWC-5-COMB       RG_CHFP          MH.5662.04.009   6.631644 14.4     166.53   3.655826 0                        
BWC-5-SAN        RG_CHFP          MH.5662.04.003   0.05955  100      86.4666  50       0                        
BWC-6-COMB1      RG_CHFP          MH.BWC-6-COMB1   8.788894 14.1     189.7    3.938558 0                        
BWC-6-COMB2      RG_CHFP          MH.BWC-6-COMB2   36.145497 18.65    768.797785 3.662878 0                        
BWC-6-SAN        RG_CHFP          MH.5662.03.067   1.14075  100      1656.369 50       0                        
BWC-7-COMB1      RG_CHFP          MH.BWC-7-COMB1   19.943361 17.4     317.4    7.141379 0                        
BWC-7-COMB2      RG_CHFP          MH.5661.04.066   50.635892 18.85    526.5    3.755038 0                        
BWC-7-SAN        RG_CHFP          MH.5661.02.005   0.3011   100      437.1972 50       0                        
BWC-8-SAN        RG_BWC8          MH.5562.02.088   1.40641  100      2042.10732 50       0                        
BWC-9-SAN        RG_BWC9          MH.5561.02.084   0.371383 100      539.248116 50       0                        
FC-10-COMB       RG_LUD           MH.FC-10-COMB    4.211817 7.8      284.444559 5.313411 0                        
FC-10-SAN        RG_FC10          MH.FC10.DWF_IN3  0.146609 100      212.876268 50       0                        
FC-11-COMB       RG_CHFP          MH.5660.04.137   6.050612 7.8      188.935248 6.09319  0                        
FC-11-SAN        RG_CHFP          MH.5660.04.136   0.117836 100      171.097872 50       0                        
FC-12-COMB       RG_FC12C         MH.5660.03.156   41.655228 10.8     890.334514 4.064015 0                        
FC-13.0-COMB     RG_LCSH          MH.5660.03.044   4.579351 17.2     236.066887 2.807402 0                        
FC-13.1-SAN      RG_LCSH          MH.5660.03.045   0.058007 100      84.226164 50       0                        
FC-13.2-SAN      RG_FC13          MH.5660.03.123   0.139309 100      202.276668 50       0                        
FC-14-COMB       RG_LUD           MH.FC-14-COMB    18.932659 30       1000     5.14     0                        
FC-14-SAN        RG_LUD           MH.5659.03.066   0.528474 100      767.344248 50       0                        
FC-15-SAN        RG_LUD           MH.FC15.DWF_IN4  0.922334 100      1339.228968 50       0                        
FC-17-COMB       RG_CHFP          MH.5660.04.085   4.569546 7.8      264.341872 6.050687 0                        
FC-1-COMB        RG_FC1           MH.5760.04.061   11.337178 36.6     361.528159 4.525562 0                        
FC-1-SAN         RG_WWTP          MH.5860.03.023   0.027309 100      39.652668 50       0                        
FC-2-SAN         RG_FC2           MH.5760.04.080   0.5742   100      833.7384 50       0                        
FC-3-COMB1       RG_CHFP          MH.FC-3-COMB1    7.247143 17.8     267.984349 5.263158 0                        
FC-3-COMB2       RG_LUD           MH.FC-3-COMB2    18.139704 16.8     677.091277 5.733307 0                        
FC-3-COMB3       RG_LUD           MH.FC-3-COMB2    0.671126 39.9     36.680343 6.775408 0                        
FC-3-SAN         RG_FC3           MH.5760.04.030   0.941994 100      1367.775288 50       0                        
FC-4-COMB1       RG_FC4C          MH.5760.04.013   14.726986 19.2     371.028068 3.489937 0                        
FC-4-COMB2       RG_CHFP          MH.5760.03.066   8.030303 20       290.290457 5.865347 0                        
FC-4-SAN         RG_FC4S          MH.5760.03.068   1.03969  100      1509.62988 50       0                        
FC-5-COMB        RG_CHFP          MH.5760.03.076   4.760387 16.5     278.33886 7.516779 0                        
FC-62-SAN        RG_FC62          MH.5760.03.005   0.019473 100      28.274796 50       0                        
FC-68-COMB       RG_FC68C         MH.5660.04.020   17.542069 7.8      331.798751 4.429006 0                        
FC-68-SAN        RG_FC68S         MH.5660.04.019   0.029971 100      43.517892 50       0                        
FC-6-COMB        RG_FC6C          MH.FC-6-COMB     1.59694  28.2     134.29093 2.702703 0                        
FC-7-COMB        RG_CHFP          MH.5660.02.S4    10.96857 32       277.947008 3.181222 0                        
FC-7-SAN         RG_CHFP          MH.5660.04.S2    0.032719 100      47.507988 50       0                        
FC-8-SAN         RG_FC8           MH.5660.04.110   0.094628 100      137.399856 50       0                        
FC-9-COMB1       RG_LUD           MH.FC-9-COMB1    6.534771 7.8      405.490943 3.297647 0                        
FC-9-COMB2       RG_LUD           MH.FC-9-COMB2    14.558392 9.5      471.84789 6.030725 0                        
FC-9-SAN         RG_FC9           MH.5659.02.071   0.36561  100      530.86572 50       0                        
IVY-1-COMB       RG_LES           MH.IVY1.01       3.494676 42.8371  107.733956 5.195768 0                        
IVY-1-SAN        RG_IVY1          MH.5462.02.081   6.5603   100      9525.5556 50       0                        
IVY-2-SAN        RG_IVY2          MH.5362.04.073   0.039348 100      57.133296 50       0                        
JRI2-1-SAN&COMB  RG_JRI2-1SC      MH.5761.04.063   22.723602 37.3     450.952205 7.934007 0                        
JRI2-3-SAN       RG_CHFP          MH.5761.04.2-73  0.013224 100      19.201248 50       0                        
JRI3-1-SAN       RG_CHFP          MH.5761.04.112   0.594487 100      863.195124 50       0                        
JRI3-2-COMB      RG_CHFP          MH.5761.02.3-713 24.748158 44.55    541.451408 12.494973 0                        
JRI3-2-SAN       RG_CHFP          MH.5761.02.3-79  0.347263 100      504.225876 50       0                        
JRI3-3-COMB      RG_CHFP          MH.5761.02.050   3.9335   43.95    119.071075 12.925643 0                        
JRI3-3-SAN       RG_CHFP          MH.5761.02.3-135 0.199305 100      289.39086 50       0                        
JRI3-4-COMB1     RG_CHFP          MH.5761.01.152   7.152181 48.35    203.759985 11.641596 0                        
JRI3-4-COMB2     RG_CHFP          MH.5761.02.049   5.758994 42.6     186.514318 14.275093 0                        
JRI3-4-SAN       RG_CHFP          MH.5761.01.153   0.855649 100      1242.402348 50       0                        
JRI3-5-COMB      RG_CHFP          MH.5761.01.134   54.448192 35.55    621.531247 8.143532 0                        
JRI3-5-SAN       RG_CHFP          MH.5761.01.156   0.228521 100      331.812492 50       0                        
JRI5-1-SAN       RG_CHFP          MH.5762.01.054   0.059887 100      86.955924 50       0                        
JRI5-2-SAN       RG_CHFP          MH.5763.03.5-XX12 0.025469 100      36.980988 50       0                        
JRI5-3-COMB1     RG_CHFP          MH.JRI5-3-COMB1  5.657389 28.5422  306.131501 4.20109  0                        
JRI5-3-COMB2     RG_CHFP          MH.JRI5-3-COMB2  1.456335 49.1725  68.879418 2.931596 0                        
JRI5-3-SAN       RG_CHFP          MH.5663.02.5-717 0.185627 100      269.530404 50       0                        
JRI6-1-COMB      RG_CHFP          MH.JRI6-1-COMB   21.574691 20.7     512.70787 4.360939 0                        
JRI6-1-SAN       RG_CHFP          MH.5663.02.6-893 0.094952 100      137.870304 50       0                        
JRI6-2-SAN       RG_CHFP          MH.5663.02.6-1105 0.04441  100      64.48332 50       0                        
JRI6-3-SAN       RG_JRI6-3        MH.5664.03.6-5168 0.072493 100      105.259836 50       0                        
JRI6-4-COMB1     RG_LES           MH.JRI6-4-COMB1  4.495402 26.7     352.193744 5.842428 0                        
JRI6-4-COMB2     RG_LES           MH.JRI6-4-COMB1  25.742264 19.3     975.072195 8.240649 0                        
JRI6-4-SAN       RG_JRI6-4        MH.5664.03.2185  0.313627 100      455.386404 50       0                        
JRI6-5-SAN       RG_LES           MH.5564.02.6-3125 3.54286  100      5144.23272 50       0                        
OF116-COMB1      RG_CHFP          MH.5661.04.047   36.932259 26.8     536.1    7.374787 0                        
OF116-COMB2      RG_CHFP          MH.OF116-COMB2   64.012183 18.55    587.2    3.062607 0                        
OF11-SAN&COMB    RG_CHFP          MH.5661.02.MH181 38.639083 16.35    428.3    4.642907 0                        
OF125_STRM       RG_CHFP          MH.125.STRM      54.698791 23.9     982.548182 6.268041 0                        
OF125-SAN&COMB   RG_CHFP          MH.5761.04.2-XX20 78.471719 28.5     925.847261 5.092091 0                        
OF14-COMB        RG_OF14          MH.5660.03.141   56.636764 7.8      1004.927666 4.796126 0                        
OF15-COMB1       RG_CHFP          MH.OF15-COMB1    5.4488   65       287.696633 2.735308 0                        
OF15-COMB2       RG_CHFP          MH.OF15-COMB2    27.310925 38       957.090836 5.106114 0                        
OF15-SAN1        RG_CHFP          MH.5660.02.MH364 2.27325  100      3300.759 50       0                        
OF15-SAN2        RG_CHFP          MH.5660.02.S6    0.372274 100      540.541848 50       0                        
OF17-COMB        RG_CHFP          MH.5660.02.021   10.380548 12.1     441.147969 4.587847 0                        
OF33-COMB        RG_LCSH          MH.5660.03.007   5.613765 7.8      358.819695 3.434015 0                        
OF34-COMB        RG_OF34C         MH.5660.03.011   16.004739 9.9      434.101153 2.446668 0                        
OF44-COMB1.1     RG_OF44          MH.OF44-COMB1.1  35.603386 12       550      3.408059 0                        
OF44-COMB1.2     RG_CHFP          MH.OF44-COMB1.2  5.303708 19.3     158.783188 2.824505 0                        
OF44-COMB2       RG_CHFP          MH.5663.03.058   52.634514 10       545      4.014138 0                        
OF44-SAN1        RG_CHFP          MH.5663.03.056   0.249681 100      362.536812 50       0                        
OF44-SAN2        RG_CHFP          MH.5663.03.094   1.49888  100      2176.37376 50       0                        
OF48-COMB        RG_CHFP          MH.5663.04.053   7.017543 30.3776  271.961023 4.840352 0                        
OF55-COMB        RG_CHFP          MH.5663.04.140   20.8099  34.8     738.776888 5.750056 0                        
OF55-SAN         RG_CHFP          MH.5663.04.CSO48.1 0.052758 100      76.604616 50       0                        
OF56_SAN&COMB1   RG_CHFP          MH.OF56_SAN&COMB1 162.76   21.15    1423     3.383262 0                        
OF56_SAN&COMB2   RG_CHFP          MH.5761.03.HF9   87.907928 20       948.7    4.494118 0                        
OF56_SAN&COMB3   RG_CHFP          MH.5761.04.MH144 35.90359 37.85    632.45   6.850887 63.2                     
OF61-SAN&COMB    RG_OF61          MH.5761.04.067   46.101825 17.9     1062.537297 6.819593 0                        
OF62-COMB        RG_LUD           MH.5760.03.MH174 0.91524  35.3     128.192458 6.430868 0                        
OF62-SAN         RG_OF62          MH.5760.03.MH174 0.241849 100      351.164748 50       0                        
OF66-COMB        RG_CHFP          MH.5760.01.MH148 57.277908 19.9     905.964302 2.836063 0                        
OF66-SAN         RG_CHFP          MH.5760.01.MH149 0.067794 100      98.436888 50       0                        
OF68-COMB        RG_LUD           MH.5659.02.026   14.734453 6.5      603.79375 4.212677 0                        
OF68-SAN         RG_LUD           MH.5659.02.064   0.462125 100      671.0055 50       0                        
OF70-COMB        RG_LUD           MH.OF70-COMB     47.630088 8        3000     4.151107 0                        
OF70-SAN         RG_LUD           MH.5659.04.029   0.7      100      1016.82108 50       0                        
OF98-COMB        RG_OF98          MH.OF98-COMB     23.847819 17.9     820.545825 4.986332 0                        

[SUBAREAS]
;;Subcatchment   N-Imperv   N-Perv     S-Imperv   S-Perv     PctZero    RouteTo    PctRouted 
;;-------------- ---------- ---------- ---------- ---------- ---------- ---------- ----------
BWC-11-SAN       0.013      0.15       0.05       0.15       10         OUTLET    
BWC-12-COMB2     0.013      0.15       0.05       0.15       10         OUTLET    
BWC-12-SAN       0.013      0.15       0.05       0.15       10         OUTLET    
BWC-13-SAN       0.013      0.15       0.05       0.15       10         OUTLET    
BWC-14-COMB      0.013      0.15       0.05       0.15       10         OUTLET    
BWC-14-SAN       0.013      0.15       0.05       0.15       10         OUTLET    
BWC-15-SAN       0.013      0.15       0.05       0.15       10         OUTLET    
BWC-16-SAN       0.013      0.15       0.05       0.15       10         OUTLET    
BWC-1-COMB       0.013      0.15       0.1        0.15       10         OUTLET    
BWC-1-SAN        0.013      0.15       0.05       0.15       10         OUTLET    
BWC-2-COMB1      0.013      0.15       0.1        0.15       10         OUTLET    
BWC-2-COMB2      0.013      0.15       0.1        0.15       10         OUTLET    
BWC-2-SAN        0.013      0.15       0.05       0.15       10         OUTLET    
BWC-3-COMB       0.013      0.15       0.1        0.15       10         OUTLET    
BWC-3-SAN        0.013      0.15       0.05       0.15       10         OUTLET    
BWC-4-SAN1       0.013      0.15       0.05       0.15       10         OUTLET    
BWC-4-SAN2       0.013      0.15       0.05       0.15       10         OUTLET    
BWC-5-COMB       0.013      0.15       0.1        0.15       10         OUTLET    
BWC-5-SAN        0.013      0.15       0.05       0.15       10         OUTLET    
BWC-6-COMB1      0.013      0.15       0.1        0.15       10         OUTLET    
BWC-6-COMB2      0.013      0.15       0.1        0.15       10         OUTLET    
BWC-6-SAN        0.013      0.15       0.05       0.15       10         OUTLET    
BWC-7-COMB1      0.013      0.15       0.1        0.15       10         OUTLET    
BWC-7-COMB2      0.013      0.15       0.1        0.15       10         OUTLET    
BWC-7-SAN        0.013      0.15       0.05       0.15       10         OUTLET    
BWC-8-SAN        0.013      0.15       0.05       0.15       10         OUTLET    
BWC-9-SAN        0.013      0.15       0.05       0.15       10         OUTLET    
FC-10-COMB       0.013      0.15       0.05       0.15       10         OUTLET    
FC-10-SAN        0.013      0.15       0.05       0.15       10         OUTLET    
FC-11-COMB       0.013      0.15       0.05       0.15       10         OUTLET    
FC-11-SAN        0.013      0.15       0.05       0.15       10         OUTLET    
FC-12-COMB       0.013      0.15       0.05       0.15       10         OUTLET    
FC-13.0-COMB     0.013      0.15       0.05       0.15       10         OUTLET    
FC-13.1-SAN      0.013      0.15       0.05       0.15       10         OUTLET    
FC-13.2-SAN      0.013      0.15       0.05       0.15       10         OUTLET    
FC-14-COMB       0.013      0.15       0.05       0.15       10         OUTLET    
FC-14-SAN        0.013      0.15       0.05       0.15       10         OUTLET    
FC-15-SAN        0.013      0.15       0.05       0.15       10         OUTLET    
FC-17-COMB       0.013      0.15       0.05       0.15       10         OUTLET    
FC-1-COMB        0.013      0.15       0.05       0.15       10         OUTLET    
FC-1-SAN         0.013      0.15       0.05       0.15       10         OUTLET    
FC-2-SAN         0.013      0.15       0.05       0.15       10         OUTLET    
FC-3-COMB1       0.013      0.15       0.05       0.15       10         OUTLET    
FC-3-COMB2       0.013      0.15       0.05       0.15       10         OUTLET    
FC-3-COMB3       0.013      0.15       0.05       0.15       10         OUTLET    
FC-3-SAN         0.013      0.15       0.05       0.15       10         OUTLET    
FC-4-COMB1       0.013      0.15       0.05       0.15       10         OUTLET    
FC-4-COMB2       0.013      0.15       0.05       0.15       10         OUTLET    
FC-4-SAN         0.013      0.15       0.05       0.15       10         OUTLET    
FC-5-COMB        0.013      0.15       0.05       0.15       10         OUTLET    
FC-62-SAN        0.013      0.15       0.05       0.15       10         OUTLET    
FC-68-COMB       0.013      0.15       0.05       0.15       10         OUTLET    
FC-68-SAN        0.013      0.15       0.05       0.15       10         OUTLET    