[TITLE]
;;Project Title/Notes

[OPTIONS]
;;Option             Value
FLOW_UNITS           CFS
INFILTRATION         HORTON
FLOW_ROUTING         DYNWAVE
LINK_OFFSETS         DEPTH
MIN_SLOPE            0
ALLOW_PONDING        NO
SKIP_STEADY_STATE    NO

IGNORE_SNOWMELT      YES
IGNORE_GROUNDWATER   YES
IGNORE_QUALITY       YES
START_DATE           03/01/2008
START_TIME           00:00:00
REPORT_START_DATE    03/01/2008
REPORT_START_TIME    00:00:00
END_DATE             04/01/2008
END_TIME             23:00:00
SWEEP_START          01/01
SWEEP_END            12/31
DRY_DAYS             5.000000
REPORT_STEP          00:05:00
WET_STEP             01:00:00
DRY_STEP             23:00:00
ROUTING_STEP         0:00:30 

INERTIAL_DAMPING     NONE
NORMAL_FLOW_LIMITED  SLOPE
FORCE_MAIN_EQUATION  H-W
VARIABLE_STEP        0.75
LENGTHENING_STEP     30
MIN_SURFAREA         12.557
MAX_TRIALS           8
HEAD_TOLERANCE       0.005
SYS_FLOW_TOL         5
LAT_FLOW_TOL         5
MINIMUM_STEP         0.5
THREADS              1

[EVAPORATION]
;;Data Source    Parameters
;;-------------- ----------------
CONSTANT         0.0
DRY_ONLY         NO

[RAINGAGES]
;;Name           Format    Interval SCF      Source    
;;-------------- --------- ------ ------ ----------
; county
COUNTY           VOLUME    0.083333 1.000000 TIMESERIES COUNTYRG        

[SUBCATCHMENTS]
;;Name           Rain Gage        Outlet           Area     %Imperv  Width    %Slope   CurbLen  SnowPack        
;;-------------- ---------------- ---------------- -------- -------- -------- -------- -------- ----------------
0                COUNTY           146-16569        1394.758765 35.000000 5800.000000 0.010000 225.000000                 
1                COUNTY           146-16591        2050.449014 35.000000 5600.000000 0.010000 225.000000                 
2                COUNTY           146-16591        681.288416 35.000000 4600.000000 0.010000 225.000000                 
3                COUNTY           146-13939        150.790736 35.000000 2400.000000 0.010000 225.000000                 

[SUBAREAS]
;;Subcatchment   N-Imperv   N-Perv     S-Imperv   S-Perv     PctZero    RouteTo    PctRouted 
;;-------------- ---------- ---------- ---------- ---------- ---------- ---------- ----------
0                0.010000   0.000000   0.050000   0.050000   25.000000  OUTLET    
1                0.010000   0.000000   0.050000   0.050000   25.000000  OUTLET    
2                0.010000   0.000000   0.050000   0.050000   25.000000  OUTLET    
3                0.010000   0.000000   0.050000   0.050000   25.000000  OUTLET    

[INFILTRATION]
;;Subcatchment   MaxRate    MinRate    Decay      DryTime    MaxInfil  
;;-------------- ---------- ---------- ---------- ---------- ----------
0                3.0        0.5        4          7          0         
1                3.0        0.5        4          7          0         
2                3.0        0.5        4          7          0         
3                3.0        0.5        4          7          0         

[JUNCTIONS]
;;Name           Elevation  MaxDepth   InitDepth  SurDepth   Aponded   
;;-------------- ---------- ---------- ---------- ---------- ----------
146-11188        0.000000   0.000000   0.000000   0.000000   0.000000  
146-11201        0.000000   0.000000   0.000000   0.000000   0.000000  
146-11202        0.000000   0.000000   0.000000   0.000000   0.000000  
146-11203        0.000000   0.000000   0.000000   0.000000   0.000000  
146-11204        0.000000   0.000000   0.000000   0.000000   0.000000  
146-11245        0.000000   0.000000   0.000000   0.000000   0.000000  
146-11246        0.000000   0.000000   0.000000   0.000000   0.000000  
146-11247        0.000000   0.000000   0.000000   0.000000   0.000000  
146-11413        0.000000   0.000000   0.000000   0.000000   0.000000  
146-11414        0.000000   0.000000   0.000000   0.000000   0.000000  
146-11482        0.000000   0.000000   0.000000   0.000000   0.000000  
146-11483        0.000000   0.000000   0.000000   0.000000   0.000000  
146-11491        0.000000   0.000000   0.000000   0.000000   0.000000  
146-11492        0.000000   0.000000   0.000000   0.000000   0.000000  
146-11502        0.000000   0.000000   0.000000   0.000000   0.000000  
146-11504        0.000000   0.000000   0.000000   0.000000   0.000000  
146-11505        0.000000   0.000000   0.000000   0.000000   0.000000  
146-11538        0.000000   0.000000   0.000000   0.000000   0.000000  
146-11539        0.000000   0.000000   0.000000   0.000000   0.000000  
146-11582        0.000000   0.000000   0.000000   0.000000   0.000000  
146-11583        0.000000   0.000000   0.000000   0.000000   0.000000  
146-11584        0.000000   0.000000   0.000000   0.000000   0.000000  
146-11597        0.000000   0.000000   0.000000   0.000000   0.000000  
146-11598        0.000000   0.000000   0.000000   0.000000   0.000000  
146-11676        0.000000   0.000000   0.000000   0.000000   0.000000  
146-11677        0.000000   0.000000   0.000000   0.000000   0.000000  
146-11678        0.000000   0.000000   0.000000   0.000000   0.000000  
146-11679        0.000000   0.000000   0.000000   0.000000   0.000000  
146-11680        0.000000   0.000000   0.000000   0.000000   0.000000  
146-11681        0.000000   0.000000   0.000000   0.000000   0.000000  
146-11682        0.000000   0.000000   0.000000   0.000000   0.000000  
146-11687        0.000000   0.000000   0.000000   0.000000   0.000000  
146-11688        0.000000   0.000000   0.000000   0.000000   0.000000  
146-11866        0.000000   0.000000   0.000000   0.000000   0.000000  
146-11867        0.000000   0.000000   0.000000   0.000000   0.000000  
146-11868        0.000000   0.000000   0.000000   0.000000   0.000000  
146-11869        0.000000   0.000000   0.000000   0.000000   0.000000  
146-11964        0.000000   0.000000   0.000000   0.000000   0.000000  
146-12078        0.000000   0.000000   0.000000   0.000000   0.000000  
146-12080        0.000000   0.000000   0.000000   0.000000   0.000000  
146-12081        0.000000   0.000000   0.000000   0.000000   0.000000  
146-12476        0.000000   0.000000   0.000000   0.000000   0.000000  
146-12477        0.000000   0.000000   0.000000   0.000000   0.000000  
146-12478        0.000000   0.000000   0.000000   0.000000   0.000000  
146-12479        0.000000   0.000000   0.000000   0.000000   0.000000  
146-12480        0.000000   0.000000   0.000000   0.000000   0.000000  
146-12491        0.000000   0.000000   0.000000   0.000000   0.000000  
146-12492        0.000000   0.000000   0.000000   0.000000   0.000000  
146-12495        0.000000   0.000000   0.000000   0.000000   0.000000  
146-12496        0.000000   0.000000   0.000000   0.000000   0.000000  
146-12535        0.000000   0.000000   0.000000   0.000000   0.000000  
146-12569        0.000000   0.000000   0.000000   0.000000   0.000000  
146-12573        0.000000   0.000000   0.000000   0.000000   0.000000  
146-12574        0.000000   0.000000   0.000000   0.000000   0.000000  
146-12575        0.000000   0.000000   0.000000   0.000000   0.000000  
146-12576        0.000000   0.000000   0.000000   0.000000   0.000000  
146-12577        0.000000   0.000000   0.000000   0.000000   0.000000  
146-12580        0.000000   0.000000   0.000000   0.000000   0.000000  
146-12593        0.000000   0.000000   0.000000   0.000000   0.000000  
146-12594        0.000000   0.000000   0.000000   0.000000   0.000000  
146-12595        0.000000   0.000000   0.000000   0.000000   0.000000  
146-12596        0.000000   0.000000   0.000000   0.000000   0.000000  
146-12597        0.000000   0.000000   0.000000   0.000000   0.000000  
146-12634        0.000000   0.000000   0.000000   0.000000   0.000000  
146-12681        0.000000   0.000000   0.000000   0.000000   0.000000  
146-12682        0.000000   0.000000   0.000000   0.000000   0.000000  
146-12696        0.000000   0.000000   0.000000   0.000000   0.000000  
146-12783        0.000000   0.000000   0.000000   0.000000   0.000000  
146-12802        0.000000   0.000000   0.000000   0.000000   0.000000  
146-12868        0.000000   0.000000   0.000000   0.000000   0.000000  
146-12869        0.000000   0.000000   0.000000   0.000000   0.000000  
146-12870        0.000000   0.000000   0.000000   0.000000   0.000000  
146-12916        0.000000   0.000000   0.000000   0.000000   0.000000  
146-12917        0.000000   0.000000   0.000000   0.000000   0.000000  
146-12932        0.000000   0.000000   0.000000   0.000000   0.000000  
146-12933        0.000000   0.000000   0.000000   0.000000   0.000000  
146-12934        0.000000   0.000000   0.000000   0.000000   0.000000  
146-12990        0.000000   0.000000   0.000000   0.000000   0.000000  
146-12991        0.000000   0.000000   0.000000   0.000000   0.000000  
146-12992        0.000000   0.000000   0.000000   0.000000   0.000000  
146-12995        0.000000   0.000000   0.000000   0.000000   0.000000  
146-12996        0.000000   0.000000   0.000000   0.000000   0.000000  
146-12997        0.000000   0.000000   0.000000   0.000000   0.000000  
146-12998        0.000000   0.000000   0.000000   0.000000   0.000000  
146-12999        0.000000   0.000000   0.000000   0.000000   0.000000  
146-13000        0.000000   0.000000   0.000000   0.000000   0.000000  
146-13937        0.000000   0.000000   0.000000   0.000000   0.000000  
146-13938        0.000000   0.000000   0.000000   0.000000   0.000000  
146-13939        0.000000   0.000000   0.000000   0.000000   0.000000  
146-13970        0.000000   0.000000   0.000000   0.000000   0.000000  
146-13971        0.000000   0.000000   0.000000   0.000000   0.000000  
146-13981        0.000000   0.000000   0.000000   0.000000   0.000000  
146-13982        0.000000   0.000000   0.000000   0.000000   0.000000  
146-13983        0.000000   0.000000   0.000000   0.000000   0.000000  
146-13984        0.000000   0.000000   0.000000   0.000000   0.000000  
146-13985        0.000000   0.000000   0.000000   0.000000   0.000000  
146-13986        0.000000   0.000000   0.000000   0.000000   0.000000  
146-14129        0.000000   0.000000   0.000000   0.000000   0.000000  
146-14130        0.000000   0.000000   0.000000   0.000000   0.000000  
146-14135        0.000000   0.000000   0.000000   0.000000   0.000000  
146-14136        0.000000   0.000000   0.000000   0.000000   0.000000  
146-14203        0.000000   0.000000   0.000000   0.000000   0.000000  
146-14272        0.000000   0.000000   0.000000   0.000000   0.000000  
146-14273        0.000000   0.000000   0.000000   0.000000   0.000000  
146-14276        0.000000   0.000000   0.000000   0.000000   0.000000  
146-14280        0.000000   0.000000   0.000000   0.000000   0.000000  
146-14304        0.000000   0.000000   0.000000   0.000000   0.000000  
146-14305        0.000000   0.000000   0.000000   0.000000   0.000000  
146-14306        0.000000   0.000000   0.000000   0.000000   0.000000  
146-14307        0.000000   0.000000   0.000000   0.000000   0.000000  
146-14308        0.000000   0.000000   0.000000   0.000000   0.000000  
146-14362        0.000000   0.000000   0.000000   0.000000   0.000000  
146-14363        0.000000   0.000000   0.000000   0.000000   0.000000  
146-14364        0.000000   0.000000   0.000000   0.000000   0.000000  
146-14365        0.000000   0.000000   0.000000   0.000000   0.000000  
146-14378        0.000000   0.000000   0.000000   0.000000   0.000000  
146-14379        0.000000   0.000000   0.000000   0.000000   0.000000  
146-14397        0.000000   0.000000   0.000000   0.000000   0.000000  
146-14398        0.000000   0.000000   0.000000   0.000000   0.000000  
146-14399        0.000000   0.000000   0.000000   0.000000   0.000000  
146-14400        0.000000   0.000000   0.000000   0.000000   0.000000  
146-14401        0.000000   0.000000   0.000000   0.000000   0.000000  
146-14402        0.000000   0.000000   0.000000   0.000000   0.000000  
146-14403        0.000000   0.000000   0.000000   0.000000   0.000000  
146-14404        0.000000   0.000000   0.000000   0.000000   0.000000  
146-14423        0.000000   0.000000   0.000000   0.000000   0.000000  
146-14424        0.000000   0.000000   0.000000   0.000000   0.000000  
146-14535        0.000000   0.000000   0.000000   0.000000   0.000000  
146-14536        0.000000   0.000000   0.000000   0.000000   0.000000  
146-14537        0.000000   0.000000   0.000000   0.000000   0.000000  
146-14538        0.000000   0.000000   0.000000   0.000000   0.000000  
146-14552        0.000000   0.000000   0.000000   0.000000   0.000000  
146-14553        0.000000   0.000000   0.000000   0.000000   0.000000  
146-14560        0.000000   0.000000   0.000000   0.000000   0.000000  
146-14561        0.000000   0.000000   0.000000   0.000000   0.000000  
146-14562        0.000000   0.000000   0.000000   0.000000   0.000000  
146-14564        0.000000   0.000000   0.000000   0.000000   0.000000  
146-14565        0.000000   0.000000   0.000000   0.000000   0.000000  
146-14566        0.000000   0.000000   0.000000   0.000000   0.000000  
146-14949        0.000000   0.000000   0.000000   0.000000   0.000000  
146-14951        0.000000   0.000000   0.000000   0.000000   0.000000  
146-14952        0.000000   0.000000   0.000000   0.000000   0.000000  
146-14953        0.000000   0.000000   0.000000   0.000000   0.000000  
146-14967        0.000000   0.000000   0.000000   0.000000   0.000000  
146-14968        0.000000   0.000000   0.000000   0.000000   0.000000  
146-14974        0.000000   0.000000   0.000000   0.000000   0.000000  
146-14975        0.000000   0.000000   0.000000   0.000000   0.000000  
146-15648        0.000000   0.000000   0.000000   0.000000   0.000000  
146-15659        0.000000   0.000000   0.000000   0.000000   0.000000  
146-15660        0.000000   0.000000   0.000000   0.000000   0.000000  
146-15778        0.000000   0.000000   0.000000   0.000000   0.000000  
146-15779        0.000000   0.000000   0.000000   0.000000   0.000000  
146-15780        0.000000   0.000000   0.000000   0.000000   0.000000  
146-15781        0.000000   0.000000   0.000000   0.000000   0.000000  
146-15851        0.000000   0.000000   0.000000   0.000000   0.000000  
146-15854        0.000000   0.000000   0.000000   0.000000   0.000000  
146-15855        0.000000   0.000000   0.000000   0.000000   0.000000  
146-15863        0.000000   0.000000   0.000000   0.000000   0.000000  
146-16077        0.000000   0.000000   0.000000   0.000000   0.000000  
146-16078        0.000000   0.000000   0.000000   0.000000   0.000000  
146-16079        0.000000   0.000000   0.000000   0.000000   0.000000  
146-16091        0.000000   0.000000   0.000000   0.000000   0.000000  
146-16099        0.000000   0.000000   0.000000   0.000000   0.000000  
146-16100        0.000000   0.000000   0.000000   0.000000   0.000000  
146-16101        0.000000   0.000000   0.000000   0.000000   0.000000  
146-16102        0.000000   0.000000   0.000000   0.000000   0.000000  
146-16105        0.000000   0.000000   0.000000   0.000000   0.000000  
146-16106        0.000000   0.000000   0.000000   0.000000   0.000000  
146-16107        0.000000   0.000000   0.000000   0.000000   0.000000  
146-16108        0.000000   0.000000   0.000000   0.000000   0.000000  
146-16109        0.000000   0.000000   0.000000   0.000000   0.000000  
146-16110        0.000000   0.000000   0.000000   0.000000   0.000000  
146-16111        0.000000   0.000000   0.000000   0.000000   0.000000  
146-16112        0.000000   0.000000   0.000000   0.000000   0.000000  
146-16121        0.000000   0.000000   0.000000   0.000000   0.000000  
146-16122        0.000000   0.000000   0.000000   0.000000   0.000000  
146-16123        0.000000   0.000000   0.000000   0.000000   0.000000  
146-16124        0.000000   0.000000   0.000000   0.000000   0.000000  
146-16235        0.000000   0.000000   0.000000   0.000000   0.000000  
146-16236        0.000000   0.000000   0.000000   0.000000   0.000000  
146-16237        0.000000   0.000000   0.000000   0.000000   0.000000  
146-16238        0.000000   0.000000   0.000000   0.000000   0.000000  
146-16239        0.000000   0.000000   0.000000   0.000000   0.000000  
146-16240        0.000000   0.000000   0.000000   0.000000   0.000000  
146-16241        0.000000   0.000000   0.000000   0.000000   0.000000  
146-16242        0.000000   0.000000   0.000000   0.000000   0.000000  
146-16243        0.000000   0.000000   0.000000   0.000000   0.000000  
146-16244        0.000000   0.000000   0.000000   0.000000   0.000000  
146-16245        0.000000   0.000000   0.000000   0.000000   0.000000  
146-16246        0.000000   0.000000   0.000000   0.000000   0.000000  
146-16247        0.000000   0.000000   0.000000   0.000000   0.000000  
146-16248        0.000000   0.000000   0.000000   0.000000   0.000000  
146-16249        0.000000   0.000000   0.000000   0.000000   0.000000  
146-16250        0.000000   0.000000   0.000000   0.000000   0.000000  
146-16251        0.000000   0.000000   0.000000   0.000000   0.000000  
146-16252        0.000000   0.000000   0.000000   0.000000   0.000000  
146-16253        0.000000   0.000000   0.000000   0.000000   0.000000  
146-16254        0.000000   0.000000   0.000000   0.000000   0.000000  
146-16255        0.000000   0.000000   0.000000   0.000000   0.000000  
146-16256        0.000000   0.000000   0.000000   0.000000   0.000000  
146-16257        0.000000   0.000000   0.000000   0.000000   0.000000  
146-16258        0.000000   0.000000   0.000000   0.000000   0.000000  
146-16259        0.000000   0.000000   0.000000   0.000000   0.000000  
146-16260        0.000000   0.000000   0.000000   0.000000   0.000000  
146-16261        0.000000   0.000000   0.000000   0.000000   0.000000  
146-16262        0.000000   0.000000   0.000000   0.000000   0.000000  
146-16263        0.000000   0.000000   0.000000   0.000000   0.000000  
146-16264        0.000000   0.000000   0.000000   0.000000   0.000000  
146-16265        0.000000   0.000000   0.000000   0.000000   0.000000  
146-16266        0.000000   0.000000   0.000000   0.000000   0.000000  
146-16267        0.000000   0.000000   0.000000   0.000000   0.000000  
146-16268        0.000000   0.000000   0.000000   0.000000   0.000000  
146-16269        0.000000   0.000000   0.000000   0.000000   0.000000  
146-16270        0.000000   0.000000   0.000000   0.000000   0.000000  
146-16271        0.000000   0.000000   0.000000   0.000000   0.000000  
146-16272        0.000000   0.000000   0.000000   0.000000   0.000000  
146-16273        0.000000   0.000000   0.000000   0.000000   0.000000  
146-16274        0.000000   0.000000   0.000000   0.000000   0.000000  
146-16275        0.000000   0.000000   0.000000   0.000000   0.000000  
146-16276        0.000000   0.000000   0.000000   0.000000   0.000000  
146-16277        0.000000   0.000000   0.000000   0.000000   0.000000  
146-16278        0.000000   0.000000   0.000000   0.000000   0.000000  
146-16279        0.000000   0.000000   0.000000   0.000000   0.000000  
146-16280        0.000000   0.000000   0.000000   0.000000   0.000000  
146-16281        0.000000   0.000000   0.000000   0.000000   0.000000  
146-16282        0.000000   0.000000   0.000000   0.000000   0.000000  
146-16283        0.000000   0.000000   0.000000   0.000000   0.000000  
146-16284        0.000000   0.000000   0.000000   0.000000   0.000000  
146-16285        0.000000   0.000000   0.000000   0.000000   0.000000  
146-16286        0.000000   0.000000   0.000000   0.000000   0.000000  
146-16287        0.000000   0.000000   0.000000   0.000000   0.000000  
146-16288        0.000000   0.000000   0.000000   0.000000   0.000000  
146-16289        0.000000   0.000000   0.000000   0.000000   0.000000  
146-16290        0.000000   0.000000   0.000000   0.000000   0.000000  
146-16291        0.000000   0.000000   0.000000   0.000000   0.000000  
146-16292        0.000000   0.000000   0.000000   0.000000   0.000000  
146-16293        0.000000   0.000000   0.000000   0.000000   0.000000  
146-16294        0.000000   0.000000   0.000000   0.000000   0.000000  
146-16295        0.000000   0.000000   0.000000   0.000000   0.000000  
146-16296        0.000000   0.000000   0.000000   0.000000   0.000000  
146-16297        0.000000   0.000000   0.000000   0.000000   0.000000  
146-16298        0.000000   0.000000   0.000000   0.000000   0.000000  
146-16299        0.000000   0.000000   0.000000   0.000000   0.000000  
146-16300        0.000000   0.000000   0.000000   0.000000   0.000000  
146-16301        0.000000   0.000000   0.000000   0.000000   0.000000  
146-16302        0.000000   0.000000   0.000000   0.000000   0.000000  
146-16303        0.000000   0.000000   0.000000   0.000000   0.000000  
146-16304        0.000000   0.000000   0.000000   0.000000   0.000000  
146-16305        0.000000   0.000000   0.000000   0.000000   0.000000  
146-16306        0.000000   0.000000   0.000000   0.000000   0.000000  
146-16307        0.000000   0.000000   0.000000   0.000000   0.000000  
146-16308        0.000000   0.000000   0.000000   0.000000   0.000000  
146-16309        0.000000   0.000000   0.000000   0.000000   0.000000  
146-16310        0.000000   0.000000   0.000000   0.000000   0.000000  
146-16311        0.000000   0.000000   0.000000   0.000000   0.000000  
146-16312        0.000000   0.000000   0.000000   0.000000   0.000000  
146-16313        0.000000   0.000000   0.000000   0.000000   0.000000  
146-16314        0.000000   0.000000   0.000000   0.000000   0.000000  
146-16315        0.000000   0.000000   0.000000   0.000000   0.000000  
146-16316        0.000000   0.000000   0.000000   0.000000   0.000000  
146-16317        0.000000   0.000000   0.000000   0.000000   0.000000  
146-16318        0.000000   0.000000   0.000000   0.000000   0.000000  
146-16319        0.000000   0.000000   0.000000   0.000000   0.000000  
146-16320        0.000000   0.000000   0.000000   0.000000   0.000000  
146-16321        0.000000   0.000000   0.000000   0.000000   0.000000  
146-16322        0.000000   0.000000   0.000000   0.000000   0.000000  
146-16323        0.000000   0.000000   0.000000   0.000000   0.000000  
146-16324        0.000000   0.000000   0.000000   0.000000   0.000000  
146-16325        0.000000   0.000000   0.000000   0.000000   0.000000  
146-16326        0.000000   0.000000   0.000000   0.000000   0.000000  
146-16327        0.000000   0.000000   0.000000   0.000000   0.000000  
146-16328        0.000000   0.000000   0.000000   0.000000   0.000000  
146-16329        0.000000   0.000000   0.000000   0.000000   0.000000  
146-16330        0.000000   0.000000   0.000000   0.000000   0.000000  
146-16331        0.000000   0.000000   0.000000   0.000000   0.000000  
146-16332        0.000000   0.000000   0.000000   0.000000   0.000000  
146-16333        0.000000   0.000000   0.000000   0.000000   0.000000  
146-16334        0.000000   0.000000   0.000000   0.000000   0.000000  
146-16335        0.000000   0.000000   0.000000   0.000000   0.000000  
146-16336        0.000000   0.000000   0.000000   0.000000   0.000000  
146-16337        0.000000   0.000000   0.000000   0.000000   0.000000  
146-16338        0.000000   0.000000   0.000000   0.000000   0.000000  
146-16339        0.000000   0.000000   0.000000   0.000000   0.000000  
146-16340        0.000000   0.000000   0.000000   0.000000   0.000000  
146-16341        0.000000   0.000000   0.000000   0.000000   0.000000  
146-16342        0.000000   0.000000   0.000000   0.000000   0.000000  
146-16343        0.000000   0.000000   0.000000   0.000000   0.000000  
146-16344        0.000000   0.000000   0.000000   0.000000   0.000000  
146-16345        0.000000   0.000000   0.000000   0.000000   0.000000  
146-16346        0.000000   0.000000   0.000000   0.000000   0.000000  
146-16347        0.000000   0.000000   0.000000   0.000000   0.000000  
146-16348        0.000000   0.000000   0.000000   0.000000   0.000000  
146-16349        0.000000   0.000000   0.000000   0.000000   0.000000  
146-16350        0.000000   0.000000   0.000000   0.000000   0.000000  
146-16351        0.000000   0.000000   0.000000   0.000000   0.000000  
146-16352        0.000000   0.000000   0.000000   0.000000   0.000000  
146-16353        0.000000   0.000000   0.000000   0.000000   0.000000  
146-16354        0.000000   0.000000   0.000000   0.000000   0.000000  
146-16355        0.000000   0.000000   0.000000   0.000000   0.000000  
146-16356        0.000000   0.000000   0.000000   0.000000   0.000000  
146-16357        0.000000   0.000000   0.000000   0.000000   0.000000  
146-16358        0.000000   0.000000   0.000000   0.000000   0.000000  
146-16359        0.000000   0.000000   0.000000   0.000000   0.000000  
146-16360        0.000000   0.000000   0.000000   0.000000   0.000000  
146-16361        0.000000   0.000000   0.000000   0.000000   0.000000  
146-16362        0.000000   0.000000   0.000000   0.000000   0.000000  
146-16363        0.000000   0.000000   0.000000   0.000000   0.000000  
146-16364        0.000000   0.000000   0.000000   0.000000   0.000000  
146-16365        0.000000   0.000000   0.000000   0.000000   0.000000  
146-16366        0.000000   0.000000   0.000000   0.000000   0.000000  
146-16367        0.000000   0.000000   0.000000   0.000000   0.000000  
146-16368        0.000000   0.000000   0.000000   0.000000   0.000000  
146-16369        0.000000   0.000000   0.000000   0.000000   0.000000  
146-16370        0.000000   0.000000   0.000000   0.000000   0.000000  
146-16371        0.000000   0.000000   0.000000   0.000000   0.000000  
146-16372        0.000000   0.000000   0.000000   0.000000   0.000000  
146-16373        0.000000   0.000000   0.000000   0.000000   0.000000  
146-16374        0.000000   0.000000   0.000000   0.000000   0.000000  
146-16375        0.000000   0.000000   0.000000   0.000000   0.000000  
146-16376        0.000000   0.000000   0.000000   0.000000   0.000000  
146-16377        0.000000   0.000000   0.000000   0.000000   0.000000  
146-16378        0.000000   0.000000   0.000000   0.000000   0.000000  
146-16415        0.000000   0.000000   0.000000   0.000000   0.000000  
146-16416        0.000000   0.000000   0.000000   0.000000   0.000000  
146-16417        0.000000   0.000000   0.000000   0.000000   0.000000  
146-16418        0.000000   0.000000   0.000000   0.000000   0.000000  
146-16419        0.000000   0.000000   0.000000   0.000000   0.000000  
146-16420        0.000000   0.000000   0.000000   0.000000   0.000000  
146-16421        0.000000   0.000000   0.000000   0.000000   0.000000  
146-16422        0.000000   0.000000   0.000000   0.000000   0.000000  
146-16423        0.000000   0.000000   0.000000   0.000000   0.000000  
146-16424        0.000000   0.000000   0.000000   0.000000   0.000000  
146-16425        0.000000   0.000000   0.000000   0.000000   0.000000  
146-16426        0.000000   0.000000   0.000000   0.000000   0.000000  
146-16427        0.000000   0.000000   0.000000   0.000000   0.000000  
146-16428        0.000000   0.000000   0.000000   0.000000   0.000000  
146-16429        0.000000   0.000000   0.000000   0.000000   0.000000  
146-16430        0.000000   0.000000   0.000000   0.000000   0.000000  
146-16431        0.000000   0.000000   0.000000   0.000000   0.000000  
146-16432        0.000000   0.000000   0.000000   0.000000   0.000000  
146-16433        0.000000   0.000000   0.000000   0.000000   0.000000  
146-16434        0.000000   0.000000   0.000000   0.000000   0.000000  
146-16435        0.000000   0.000000   0.000000   0.000000   0.000000  
146-16436        0.000000   0.000000   0.000000   0.000000   0.000000  
146-16437        0.000000   0.000000   0.000000   0.000000   0.000000  
146-16438        0.000000   0.000000   0.000000   0.000000   0.000000  
146-16439        0.000000   0.000000   0.000000   0.000000   0.000000  
146-16440        0.000000   0.000000   0.000000   0.000000   0.000000  
146-16441        0.000000   0.000000   0.000000   0.000000   0.000000  
146-16442        0.000000   0.000000   0.000000   0.000000   0.000000  
146-16443        0.000000   0.000000   0.000000   0.000000   0.000000  
146-16444        0.000000   0.000000   0.000000   0.000000   0.000000  
146-16445        0.000000   0.000000   0.000000   0.000000   0.000000  
146-16446        0.000000   0.000000   0.000000   0.000000   0.000000  
146-16447        0.000000   0.000000   0.000000   0.000000   0.000000  
146-16448        0.000000   0.000000   0.000000   0.000000   0.000000  
146-16449        0.000000   0.000000   0.000000   0.000000   0.000000  
146-16450        0.000000   0.000000   0.000000   0.000000   0.000000  
146-16451        0.000000   0.000000   0.000000   0.000000   0.000000  
146-16452        0.000000   0.000000   0.000000   0.000000   0.000000  
146-16453        0.000000   0.000000   0.000000   0.000000   0.000000  
146-16454        0.000000   0.000000   0.000000   0.000000   0.000000  
146-16455        0.000000   0.000000   0.000000   0.000000   0.000000  
146-16456        0.000000   0.000000   0.000000   0.000000   0.000000  
146-16457        0.000000   0.000000   0.000000   0.000000   0.000000  
146-16458        0.000000   0.000000   0.000000   0.000000   0.000000  
146-16459        0.000000   0.000000   0.000000   0.000000   0.000000  
146-16460        0.000000   0.000000   0.000000   0.000000   0.000000  
146-16461        0.000000   0.000000   0.000000   0.000000   0.000000  
146-16462        0.000000   0.000000   0.000000   0.000000   0.000000  
146-16463        0.000000   0.000000   0.000000   0.000000   0.000000  
146-16464        0.000000   0.000000   0.000000   0.000000   0.000000  