[TITLE]
;;Project Title/Notes

[OPTIONS]
;;Option             Value
FLOW_UNITS           CMS
INFILTRATION         HORTON
FLOW_ROUTING         DYNWAVE
LINK_OFFSETS         DEPTH
MIN_SLOPE            0
ALLOW_PONDING        NO
SKIP_STEADY_STATE    NO

START_DATE           06/08/2014
START_TIME           00:00:00
REPORT_START_DATE    06/08/2014
REPORT_START_TIME    00:00:00
END_DATE             06/08/2014
END_TIME             09:00:00
SWEEP_START          01/01
SWEEP_END            12/31
DRY_DAYS             0
REPORT_STEP          00:01:00
WET_STEP             00:01:00
DRY_STEP             01:00:00
ROUTING_STEP         0:00:30 

INERTIAL_DAMPING     PARTIAL
NORMAL_FLOW_LIMITED  BOTH
FORCE_MAIN_EQUATION  H-W
VARIABLE_STEP        0.75
LENGTHENING_STEP     0
MIN_SURFAREA         0
MAX_TRIALS           0
HEAD_TOLERANCE       0
SYS_FLOW_TOL         5
LAT_FLOW_TOL         5
MINIMUM_STEP         0.5
THREADS              1

[EVAPORATION]
;;Data Source    Parameters
;;-------------- ----------------
CONSTANT         0.0
DRY_ONLY         NO

[RAINGAGES]
;;Name           Format    Interval SCF      Source    
;;-------------- --------- ------ ------ ----------
1                INTENSITY 0:01     1.0      TIMESERIES 50h             

[SUBCATCHMENTS]
;;Name           Rain Gage        Outlet           Area     %Imperv  Width    %Slope   CurbLen  SnowPack        
;;-------------- ---------------- ---------------- -------- -------- -------- -------- -------- ----------------
m1               1                j1               3.65     70       200      0.1      0                        
m2               1                j2               2.85     70       200      0.1      0                        
m3               1                j3               3.14     70       200      0.1      0                        
m4               1                j4               4.01     70       200      0.1      0                        
m5               1                j5               4.05     70       200      0.1      0                        
m6               1                j6               4.75     70       200      0.1      0                        
m7               1                j8               3.85     70       200      0.1      0                        
m8               1                j8               2.13     70       200      0.1      0                        
m9               1                j9               3.87     70       200      0.1      0                        
m10              1                j9               2.09     70       200      0.1      0                        
m11              1                j10              1.85     70       200      0.1      0                        
m12              1                j12              2.23     70       200      0.1      0                        
m13              1                j10              2.11     70       200      0.1      0                        
m14              1                j12              3.74     70       200      0.1      0                        
m15              1                j14              1.23     70       200      0.1      0                        
m16              1                j14              2.16     70       200      0.1      0                        
m17              1                j15              2.66     70       200      0.1      0                        
m18              1                j16              2.51     70       200      0.1      0                        
m19              1                j14              1.84     70       200      0.1      0                        
m20              1                j14              1.51     70       200      0.1      0                        
m21              1                j15              2.21     70       200      0.1      0                        
m22              1                j16              1.62     70       200      0.1      0                        
m23              1                j11              1.35     70       200      0.1      0                        
m24              1                j11              5.19     70       200      0.1      0                        
m25              1                j13              2.94     70       200      0.1      0                        
m26              1                j18              3.13     70       200      0.1      0                        
m27              1                j19              2.40     70       200      0.1      0                        
m28              1                j18              2.28     70       200      0.1      0                        
m29              1                j19              1.60     70       200      0.1      0                        
m30              1                j21              1.76     70       200      0.1      0                        
m31              1                j21              1.46     70       200      0.1      0                        
m32              1                j20              0.86     70       200      0.1      0                        
m33              1                j13              1.11     70       200      0.1      0                        
m34              1                j20              1.00     70       200      0.1      0                        
m35              1                j17              2.67     70       200      0.1      0                        
m36              1                j17              2.09     70       200      0.1      0                        
m37              1                m38              6.46     70       200      0.1      0                        
m38              1                j22              5.87     70       200      0.1      0                        
m39              1                j22              5.63     70       200      0.1      0                        
m40              1                m41              3.57     70       200      0.1      0                        
m41              1                m42              2.75     70       200      0.1      0                        
m42              1                j24              3.38     70       200      0.1      0                        
m43              1                j25              2.48     70       200      0.1      0                        
m44              1                j26              1.63     70       200      0.1      0                        
m45              1                j24              5.61     70       200      0.1      0                        
m46              1                j25              3.94     70       200      0.1      0                        
m47              1                j26              3.44     70       200      0.1      0                        
m48              1                j26              1.56     70       200      0.1      0                        
m49              1                j26              2.60     70       200      0.1      0                        
m50              1                j27              2.26     70       200      0.1      0                        
m51              1                j27              2.47     70       200      0.1      0                        
m52              1                j28              4.18     70       200      0.1      0                        
m53              1                j28              4.58     70       200      0.1      0                        
m54              1                j31              1.55     70       200      0.1      0                        
m55              1                j31              2.04     70       200      0.1      0                        
m56              1                j40              5.89     70       200      0.1      0                        
m57              1                j40              2.18     70       200      0.1      0                        
m58              1                j42              1.98     70       200      0.1      0                        
m59              1                m61              4.71     70       200      0.1      0                        
m60              1                m62              3.37     70       200      0.1      0                        
m61              1                j41              5.75     70       200      0.1      0                        
m62              1                j42              3.74     70       200      0.1      0                        
m63              1                m64              3.16     70       200      0.1      0                        
m64              1                j43              3.33     70       200      0.1      0                        
m65              1                j43              2.92     70       200      0.1      0                        
m66              1                m69              2.63     70       200      0.1      0                        
m67              1                m70              2.29     70       200      0.1      0                        
m68              1                m74              3.52     70       200      0.1      0                        
m69              1                j44              3.19     70       200      0.1      0                        
m70              1                j45              3.08     70       200      0.1      0                        
m71              1                j44              2.83     70       200      0.1      0                        
m72              1                j45              2.72     70       200      0.1      0                        
m73              1                j46              4.12     70       200      0.1      0                        
m74              1                j46              4.74     70       200      0.1      0                        
m75              1                j30              3.25     70       200      0.1      0                        
m76              1                j31              1.51     70       200      0.1      0                        
m77              1                j31              2.50     70       200      0.1      0                        
m78              1                j32              4.83     70       200      0.1      0                        
m79              1                j33              3.96     70       200      0.1      0                        
m80              1                j34              3.53     70       200      0.1      0                        
m81              1                j35              5.18     70       200      0.1      0                        
m82              1                j30              6.58     70       200      0.1      0                        
m83              1                j31              1.16     70       200      0.1      0                        
m84              1                j31              2.69     70       200      0.1      0                        
m85              1                j32              1.74     70       200      0.1      0                        
m86              1                j37              1.33     70       200      0.1      0                        
m87              1                j37              1.03     70       200      0.1      0                        
m88              1                j38              1.60     70       200      0.1      0                        
m89              1                j38              1.42     70       200      0.1      0                        
m90              1                j33              1.26     70       200      0.1      0                        
m91              1                j34              2.32     70       200      0.1      0                        
m92              1                j35              3.58     70       200      0.1      0                        
m93              1                j48              6.16     70       200      0.1      0                        
m94              1                j49              4.43     70       200      0.1      0                        
m95              1                j51              0.90     70       200      0.1      0                        
m96              1                j51              0.84     70       200      0.1      0                        
m97              1                j52              1.43     70       200      0.1      0                        
m98              1                j52              1.54     70       200      0.1      0                        
m99              1                j53              4.38     70       200      0.1      0                        
m100             1                j54              2.77     70       200      0.1      0                        
m101             1                j55              2.54     70       200      0.1      0                        
m102             1                j56              3.01     70       200      0.1      0                        
m103             1                j57              2.90     70       200      0.1      0                        
m104             1                j58              2.11     70       200      0.1      0                        
m105             1                j61              4.59     70       200      0.1      0                        
m106             1                j63              3.99     70       200      0.1      0                        
m107             1                j64              2.94     70       200      0.1      0                        
m108             1                j66              4.88     70       200      0.1      0                        
m109             1                j59              4.11     70       200      0.1      0                        
m110             1                j59              1.95     70       200      0.1      0                        
m111             1                j60              4.35     70       200      0.1      0                        
m112             1                j60              1.89     70       200      0.1      0                        
m113             1                j63              2.46     70       200      0.1      0                        
m114             1                j64              2.40     70       200      0.1      0                        
m115             1                j66              4.48     70       200      0.1      0                        
m116             1                j64              2.68     70       200      0.1      0                        
m117             1                j65              4.18     70       200      0.1      0                        
m118             1                j265             5.03     70       200      0.1      0                        
m119             1                j264             3.54     70       200      0.1      0                        
m120             1                j264             1.88     70       200      0.1      0                        
m121             1                j265             2.26     70       200      0.1      0                        
m122             1                j68              2.29     70       200      0.1      0                        
m123             1                j68              1.99     70       200      0.1      0                        
m124             1                j69              1.76     70       200      0.1      0                        
m125             1                j69              1.52     70       200      0.1      0                        
m126             1                j70              2.31     70       200      0.1      0                        
m127             1                j70              2.54     70       200      0.1      0                        
m128             1                j71              2.52     70       200      0.1      0                        
m129             1                j71              2.24     70       200      0.1      0                        
m130             1                j72              2.28     70       200      0.1      0                        
m131             1                j73              2.59     70       200      0.1      0                        
m132             1                j75              2.44     70       200      0.1      0                        
m133             1                j76              2.69     70       200      0.1      0                        
m134             1                j75              1.99     70       200      0.1      0                        
m135             1                j76              2.21     70       200      0.1      0                        
m136             1                j77              2.55     70       200      0.1      0                        
m137             1                j78              2.98     70       200      0.1      0                        
m138             1                j77              1.37     70       200      0.1      0                        
m139             1                j78              1.59     70       200      0.1      0                        
m140             1                j74              1.71     70       200      0.1      0                        
m141             1                j74              1.48     70       200      0.1      0                        
m142             1                j79              1.99     70       200      0.1      0                        
m143             1                j79              1.71     70       200      0.1      0                        
m144             1                j84              2.96     70       200      0.1      0                        
m145             1                j85              2.53     70       200      0.1      0                        
m146             1                j81              2.82     70       200      0.1      0                        
m147             1                j81              2.94     70       200      0.1      0                        
m148             1                j82              1.74     70       200      0.1      0                        
m149             1                j83              1.89     70       200      0.1      0                        
m150             1                j82              4.10     70       200      0.1      0                        
m151             1                m150             3.48     70       200      0.1      0                        
m152             1                j83              2.12     70       200      0.1      0                        
m153             1                j80              1.37     70       200      0.1      0                        
m154             1                j84              6.40     70       200      0.1      0                        
m155             1                j85              1.94     70       200      0.1      0                        
m156             1                j80              2.40     70       200      0.1      0                        
m157             1                j86              4.97     70       200      0.1      0                        
m158             1                j86              2.87     70       200      0.1      0                        
m159             1                j88              1.81     70       200      0.1      0                        
m160             1                j88              2.49     70       200      0.1      0                        
m161             1                j89              2.47     70       200      0.1      0                        
m162             1                j89              1.99     70       200      0.1      0                        
m163             1                j91              3.38     70       200      0.1      0                        
m164             1                j92              4.43     70       200      0.1      0                        
m165             1                j92              2.86     70       200      0.1      0                        
m166             1                j91              2.52     70       200      0.1      0                        
m167             1                j90              1.99     70       200      0.1      0                        
m168             1                j90              3.14     70       200      0.1      0                        
m169             1                j93              2.31     70       200      0.1      0                        
m170             1                j93              3.72     70       200      0.1      0                        
m171             1                j95              1.68     70       200      0.1      0                        
m172             1                j96              1.33     70       200      0.1      0                        
m173             1                j95              2.40     70       200      0.1      0                        
m174             1                j96              1.82     70       200      0.1      0                        
m175             1                j98              3.02     70       200      0.1      0                        
m176             1                j97              3.63     70       200      0.1      0                        
m177             1                j98              2.90     70       200      0.1      0                        
m178             1                j97              3.42     70       200      0.1      0                        
m179             1                j94              3.38     70       200      0.1      0                        
m180             1                j94              1.89     70       200      0.1      0                        
m181             1                j99              4.06     70       200      0.1      0                        
m182             1                j99              1.89     70       200      0.1      0                        
m183             1                j104             1.84     70       200      0.1      0                        
m184             1                j103             1.95     70       200      0.1      0                        
m185             1                j103             1.25     70       200      0.1      0                        
m186             1                j104             1.17     70       200      0.1      0                        
m187             1                j100             1.41     70       200      0.1      0                        
m188             1                j100             2.02     70       200      0.1      0                        
m189             1                j101             3.65     70       200      0.1      0                        
m190             1                j101             3.73     70       200      0.1      0                        
m191             1                j102             2.36     70       200      0.1      0                        
m192             1                j102             2.10     70       200      0.1      0                        
m193             1                j109             1.87     70       200      0.1      0                        
m194             1                j109             0.94     70       200      0.1      0                        
m195             1                j110             1.05     70       200      0.1      0                        
m196             1                j110             2.27     70       200      0.1      0                        
m197             1                j105             2.12     70       200      0.1      0                        
m198             1                j105             1.41     70       200      0.1      0                        
m199             1                j107             1.76     70       200      0.1      0                        
m200             1                j108             2.00     70       200      0.1      0                        
m201             1                j107             3.20     70       200      0.1      0                        
m202             1                m201             2.46     70       200      0.1      0                        
m203             1                j108             1.72     70       200      0.1      0                        
m204             1                j106             1.57     70       200      0.1      0                        
m205             1                j106             1.53     70       200      0.1      0                        
m206             1                j113             1.31     70       200      0.1      0                        
m207             1                j112             1.40     70       200      0.1      0                        
m208             1                j113             2.16     70       200      0.1      0                        
m209             1                j112             3.76     70       200      0.1      0                        
m210             1                j111             3.21     70       200      0.1      0                        
m211             1                j111             1.70     70       200      0.1      0                        
m218             1                j135             0.93     70       200      0.1      0                        
m219             1                j135             1.78     70       200      0.1      0                        
m220             1                j136             5.17     70       200      0.1      0                        
m221             1                j136             0.95     70       200      0.1      0                        
m222             1                j137             2.25     70       200      0.1      0                        
m223             1                j137             6.46     70       200      0.1      0                        
m224             1                j130             1.51     70       200      0.1      0                        
m225             1                j130             2.35     70       200      0.1      0                        
m226             1                j131             1.68     70       200      0.1      0                        
m227             1                j131             2.34     70       200      0.1      0                        
m228             1                j132             0.87     70       200      0.1      0                        
m229             1                j132             2.04     70       200      0.1      0                        
m230             1                j133             4.27     70       200      0.1      0                        
m231             1                j133             1.69     70       200      0.1      0                        
m232             1                j125             1.91     70       200      0.1      0                        
m233             1                j125             2.25     70       200      0.1      0                        
m234             1                j126             3.14     70       200      0.1      0                        
m235             1                j126             2.67     70       200      0.1      0                        
m236             1                j127             2.04     70       200      0.1      0                        
m237             1                j127             2.84     70       200      0.1      0                        
m238             1                j128             5.16     70       200      0.1      0                        
m239             1                j128             3.54     70       200      0.1      0                        
m240             1                j120             2.27     70       200      0.1      0                        
m241             1                j120             1.71     70       200      0.1      0                        
m242             1                j121             2.00     70       200      0.1      0                        
m243             1                j121             1.51     70       200      0.1      0                        
m244             1                j122             2.07     70       200      0.1      0                        
m245             1                j123             3.66     70       200      0.1      0                        
m246             1                j122             2.78     70       200      0.1      0                        
m247             1                j123             5.02     70       200      0.1      0                        
m248             1                j115             1.18     70       200      0.1      0                        
m249             1                j116             1.36     70       200      0.1      0                        
m250             1                j117             1.76     70       200      0.1      0                        
m251             1                j116             1.86     70       200      0.1      0                        
m252             1                j115             1.59     70       200      0.1      0                        
m253             1                j117             1.44     70       200      0.1      0                        
m254             1                j118             3.23     70       200      0.1      0                        
m255             1                j118             3.62     70       200      0.1      0                        
m256             1                j140             3.74     70       200      0.1      0                        
m257             1                j139             3.55     70       200      0.1      0                        
m258             1                j139             1.38     70       200      0.1      0                        