[OPTIONS]
;Option and Files Scenario Set: DESIGN
FLOW_UNITS	GPM
INFILTRATION	CURVE_NUMBER
FLOW_ROUTING	DYNWAVE
ALLOW_PONDING	YES
DRY_DAYS	5.000000
SKIP_STEADY_STATE 	NO
IGNORE_RAINFALL	NO
IGNORE_SNOWMELT	YES
IGNORE_GROUNDWATER	YES
IGNORE_QUALITY	YES
FORCE_MAIN_EQUATION	H-W
LINK_OFFSETS	DEPTH
MIN_SLOPE	0.000000
START_DATE	01/01/2016
START_TIME	00:00
END_DATE	01/04/2016
END_TIME	00:00
REPORT_START_DATE	01/01/2016
REPORT_START_TIME	00:00
SWEEP_START	01/01
SWEEP_END	12/31
WET_STEP	00:03:00
DRY_STEP	00:05:00
ROUTING_STEP	0
REPORT_STEP	00:05:00
INERTIAL_DAMPING	PARTIAL
VARIABLE_STEP	0.750000
MINIMUM_STEP	0.000000
LENGTHENING_STEP	5
MIN_SURFAREA	0.000000
NORMAL_FLOW_LIMITED	BOTH
MAX_TRIALS	13
HEAD_TOLERANCE	0.000100

[FILES]

[RAINGAGES]
; MAWN
MCBAIN	CUMULATIVE	0.083333	1.000000	TIMESERIES	10YEAR		

[HYDROGRAPHS]

[TEMPERATURE]

[ADJUSTMENTS]

[SUBCATCHMENTS]
SUB_001	MCBAIN	MH0218	0.729502	0.000000	500.000000	0.500000	0.000000
SUB_002	MCBAIN	MH0068	7.356177	0.000000	500.000000	0.500000	0.000000
SUB_004	MCBAIN	CB0480	3.226637	0.000000	500.000000	0.500000	0.000000
SUB_005	MCBAIN	MH0197	1.490123	0.000000	500.000000	0.500000	0.000000
SUB_007	MCBAIN	MH0300	6.150741	0.000000	500.000000	0.500000	0.000000
SUB_008	MCBAIN	MH0539	1.320777	0.000000	500.000000	0.500000	0.000000
SUB_009	MCBAIN	MH0542	6.658507	0.000000	500.000000	0.500000	0.000000
SUB_010	MCBAIN	CB0966	3.914911	0.000000	500.000000	0.500000	0.000000
SUB_011	MCBAIN	MH0419	9.539677	0.000000	500.000000	0.500000	0.000000
SUB_012	MCBAIN	MH0430	9.014874	0.000000	500.000000	0.500000	0.000000
SUB_013	MCBAIN	MH0676	3.203532	0.000000	500.000000	0.500000	0.000000
SUB_014	MCBAIN	MDOT-CB0445	9.086385	0.000000	500.000000	0.500000	0.000000
SUB_015	MCBAIN	MH0726	8.201531	0.000000	500.000000	0.500000	0.000000
SUB_016	MCBAIN	MH0417	3.485971	0.000000	500.000000	0.500000	0.000000
SUB_017	MCBAIN	MH0379	9.387024	0.000000	500.000000	0.500000	0.000000
SUB_018	MCBAIN	MH0529	12.019960	0.000000	500.000000	0.500000	0.000000
SUB_019	MCBAIN	MH0006	3.859063	0.000000	500.000000	0.500000	0.000000
SUB_020	MCBAIN	MH0227	5.947635	0.000000	500.000000	0.500000	0.000000
SUB_022	MCBAIN	CB1395	6.652129	0.000000	500.000000	0.500000	0.000000
SUB_023	MCBAIN	CB0287	2.406343	0.000000	500.000000	0.500000	0.000000
SUB_024	MCBAIN	MDOT-CB0139	1.291849	0.000000	500.000000	0.500000	0.000000
SUB_025	MCBAIN	CB9008	1.153807	0.000000	500.000000	0.500000	0.000000
SUB_026	MCBAIN	MH0411	4.030953	0.000000	500.000000	0.500000	0.000000
SUB_029	MCBAIN	MH0306	5.173902	0.000000	500.000000	0.500000	0.000000
SUB_031	MCBAIN	MH0311	5.296134	0.000000	500.000000	0.500000	0.000000
SUB_032	MCBAIN	CB0580	6.870764	0.000000	500.000000	0.500000	0.000000
SUB_034	MCBAIN	CB0607	6.334606	0.000000	500.000000	0.500000	0.000000
SUB_035	MCBAIN	MH0325	4.636082	0.000000	500.000000	0.500000	0.000000
SUB_036	MCBAIN	MH0337	10.107715	0.000000	500.000000	0.500000	0.000000
SUB_037	MCBAIN	MH0338	0.738294	0.000000	500.000000	0.500000	0.000000
SUB_044	MCBAIN	CB0720	8.249304	0.000000	500.000000	0.500000	0.000000
SUB_045	MCBAIN	CB0941	3.826342	0.000000	500.000000	0.500000	0.000000
SUB_058	MCBAIN	MH0209	1.257233	0.000000	500.000000	0.500000	0.000000
SUB_059	MCBAIN	MH0408	0.755281	0.000000	500.000000	0.500000	0.000000
SUB_060	MCBAIN	MH0408	1.102489	0.000000	500.000000	0.500000	0.000000
SUB_064	MCBAIN	MH0671	3.903961	0.000000	500.000000	0.500000	0.000000
SUB_066	MCBAIN	MH0423	1.537621	0.000000	500.000000	0.500000	0.000000
SUB_067	MCBAIN	MH0469	4.516696	0.000000	500.000000	0.500000	0.000000
SUB_068	MCBAIN	MH0474	3.171780	0.000000	500.000000	0.500000	0.000000
SUB_069	MCBAIN	CB0696	6.079170	0.000000	500.000000	0.500000	0.000000
SUB_070	MCBAIN	MH0643	4.911736	0.000000	500.000000	0.500000	0.000000
SUB_075	MCBAIN	MH0599	7.146077	0.000000	500.000000	0.500000	0.000000
SUB_086	MCBAIN	CB1018	1.728501	0.000000	500.000000	0.500000	0.000000
SUB_102	MCBAIN	CB0753	4.753632	0.000000	500.000000	0.500000	0.000000
SUB_107	MCBAIN	CB1043	3.919485	0.000000	500.000000	0.500000	0.000000
SUB_116	MCBAIN	CB0480	6.025598	0.000000	500.000000	0.500000	0.000000
SUB_117	MCBAIN	MH0254	12.059267	0.000000	500.000000	0.500000	0.000000
SUB_118	MCBAIN	MH0260	15.305746	0.000000	500.000000	0.500000	0.000000
SUB_122	MCBAIN	MH0268	8.154004	0.000000	500.000000	0.500000	0.000000
SUB_132	MCBAIN	CB1221	2.752375	0.000000	500.000000	0.500000	0.000000
SUB_133	MCBAIN	MH0352	5.753427	0.000000	500.000000	0.500000	0.000000
SUB_134	MCBAIN	MH0271	5.563954	0.000000	500.000000	0.500000	0.000000
SUB_135	MCBAIN	MH0607	1.535881	0.000000	500.000000	0.500000	0.000000
SUB_136	MCBAIN	CB0478	1.569208	0.000000	500.000000	0.500000	0.000000
SUB_137	MCBAIN	MDOT-CB0063	1.303411	0.000000	500.000000	0.500000	0.000000
SUB_138	MCBAIN	MH0501	2.601816	0.000000	500.000000	0.500000	0.000000
SUB_139	MCBAIN	CB1264A	3.044256	0.000000	500.000000	0.500000	0.000000
SUB_140	MCBAIN	MH0114	5.160758	0.000000	500.000000	0.500000	0.000000
SUB_141	MCBAIN	CB1269	2.254261	0.000000	500.000000	0.500000	0.000000
SUB_142	MCBAIN	CB1272	0.093515	0.000000	500.000000	0.500000	0.000000
SUB_143	MCBAIN	MH0082	3.117726	0.000000	500.000000	0.500000	0.000000
SUB_144	MCBAIN	MH0624	4.837837	0.000000	500.000000	0.500000	0.000000
SUB_145	MCBAIN	CB0426	0.384175	0.000000	500.000000	0.500000	0.000000
SUB_146	MCBAIN	MH0086	1.239980	0.000000	500.000000	0.500000	0.000000
SUB_149	MCBAIN	MH0136	8.936392	0.000000	500.000000	0.500000	0.000000
SUB_150	MCBAIN	MH0138	10.503542	0.000000	500.000000	0.500000	0.000000
SUB_152	MCBAIN	CB6007	3.313401	0.000000	500.000000	0.500000	0.000000
SUB_153	MCBAIN	MH0052	12.279927	0.000000	500.000000	0.500000	0.000000
SUB_154	MCBAIN	MH0637	1.116626	0.000000	500.000000	0.500000	0.000000
SUB_155	MCBAIN	MH0019	0.806123	0.000000	500.000000	0.500000	0.000000
SUB_156	MCBAIN	CB0049	0.233619	0.000000	500.000000	0.500000	0.000000
SUB_157	MCBAIN	MH0026	2.078584	0.000000	500.000000	0.500000	0.000000
SUB_158	MCBAIN	MH0683	6.382791	0.000000	500.000000	0.500000	0.000000
SUB_159	MCBAIN	MH0235	8.612048	0.000000	500.000000	0.500000	0.000000
SUB_160	MCBAIN	MH0588	5.018464	0.000000	500.000000	0.500000	0.000000
SUB_161	MCBAIN	MH0530	2.359414	0.000000	500.000000	0.500000	0.000000
SUB_162	MCBAIN	CB0006	1.249793	0.000000	500.000000	0.500000	0.000000
SUB_163	MCBAIN	MH0511	15.846894	0.000000	500.000000	0.500000	0.000000
SUB_164	MCBAIN	MH0107	11.148809	0.000000	500.000000	0.500000	0.000000
SUB_165	MCBAIN	MH0584	10.749177	0.000000	500.000000	0.500000	0.000000
SUB_168	MCBAIN	MDOT-MH0246	0.355315	0.000000	500.000000	0.500000	0.000000
SUB_169	MCBAIN	MH0488	6.543409	0.000000	500.000000	0.500000	0.000000
SUB_170	MCBAIN	MDOT-CB1190	1.402676	0.000000	500.000000	0.500000	0.000000
SUB_171	MCBAIN	MH0144	5.174055	0.000000	500.000000	0.500000	0.000000
SUB_172	MCBAIN	MH0132	6.900132	0.000000	500.000000	0.500000	0.000000
SUB_173	MCBAIN	MH0629	5.226123	0.000000	500.000000	0.500000	0.000000
SUB_174	MCBAIN	MH0158	7.369184	0.000000	500.000000	0.500000	0.000000
SUB_175	MCBAIN	MH0134	3.344028	0.000000	500.000000	0.500000	0.000000
SUB_176	MCBAIN	MH0441	3.268607	0.000000	500.000000	0.500000	0.000000
SUB_178	MCBAIN	CB1026	3.630984	0.000000	500.000000	0.500000	0.000000
SUB_179	MCBAIN	CB0398	7.035422	0.000000	500.000000	0.500000	0.000000
SUB_184	MCBAIN	MH0251	11.884746	0.000000	500.000000	0.500000	0.000000
SUB_185	MCBAIN	MDOT-MH0698	3.895614	0.000000	500.000000	0.500000	0.000000
SUB_186	MCBAIN	MH0453	8.064355	0.000000	500.000000	0.500000	0.000000
SUB_187	MCBAIN	MH0459	5.183483	0.000000	500.000000	0.500000	0.000000
SUB_188	MCBAIN	MH0482	6.745164	0.000000	500.000000	0.500000	0.000000
SUB_189	MCBAIN	MH0445	1.674032	0.000000	500.000000	0.500000	0.000000
SUB_190	MCBAIN	CB1363	5.320283	0.000000	500.000000	0.500000	0.000000
SUB_191	MCBAIN	MDOT-MH0230	4.105472	0.000000	500.000000	0.500000	0.000000
SUB_192	MCBAIN	MH0351	13.282765	0.000000	500.000000	0.500000	0.000000
SUB_193	MCBAIN	MH0343	3.449495	0.000000	500.000000	0.500000	0.000000
SUB_194	MCBAIN	CB0756	13.078930	0.000000	500.000000	0.500000	0.000000
SUB_197	MCBAIN	MH0071	9.804222	0.000000	500.000000	0.500000	0.000000
SUB_198	MCBAIN	CB0078	7.512648	0.000000	500.000000	0.500000	0.000000
SUB_199	MCBAIN	MH0090	11.668952	0.000000	500.000000	0.500000	0.000000
SUB_200	MCBAIN	MH0093	5.860117	0.000000	500.000000	0.500000	0.000000
SUB_201	MCBAIN	MH0097	7.309690	0.000000	500.000000	0.500000	0.000000
SUB_202	MCBAIN	MH0237	8.055653	0.000000	500.000000	0.500000	0.000000
SUB_203	MCBAIN	MDOT-CB0532	0.895608	0.000000	500.000000	0.500000	0.000000
SUB_204	MCBAIN	MH0109A	0.886431	0.000000	500.000000	0.500000	0.000000
SUB_205	MCBAIN	MH0051	3.809252	0.000000	500.000000	0.500000	0.000000
SUB_206	MCBAIN	CB0037	2.225081	0.000000	500.000000	0.500000	0.000000
SUB_207	MCBAIN	MH0123	2.408877	0.000000	500.000000	0.500000	0.000000
SUB_208	MCBAIN	MH0179	5.565576	0.000000	500.000000	0.500000	0.000000
SUB_209	MCBAIN	MH0193	6.118540	0.000000	500.000000	0.500000	0.000000
SUB_210	MCBAIN	MH0129	6.887921	0.000000	500.000000	0.500000	0.000000
SUB_211	MCBAIN	MDOT-MH0434A	1.345729	0.000000	500.000000	0.500000	0.000000
SUB_212	MCBAIN	CB0351	6.203252	0.000000	500.000000	0.500000	0.000000
SUB_213	MCBAIN	CB0192	7.450198	0.000000	500.000000	0.500000	0.000000
SUB_214	MCBAIN	MH0155	4.177564	0.000000	500.000000	0.500000	0.000000
SUB_215	MCBAIN	MH0153	4.539749	0.000000	500.000000	0.500000	0.000000
SUB_216	MCBAIN	MH0402	9.623067	0.000000	500.000000	0.500000	0.000000
SUB_217	MCBAIN	MH0507	13.189816	0.000000	500.000000	0.500000	0.000000
SUB_218	MCBAIN	MH0094	3.567967	0.000000	500.000000	0.500000	0.000000
SUB_219	MCBAIN	CB0625	7.461867	0.000000	500.000000	0.500000	0.000000
SUB_220	MCBAIN	MH0319	10.813419	0.000000	500.000000	0.500000	0.000000
SUB_221	MCBAIN	MH0329	6.999873	0.000000	500.000000	0.500000	0.000000
SUB_222	MCBAIN	CB5095	8.113842	0.000000	500.000000	0.500000	0.000000
SUB_223	MCBAIN	MH0390	2.202879	0.000000	500.000000	0.500000	0.000000
SUB_224	MCBAIN	MH0261	16.605335	0.000000	500.000000	0.500000	0.000000
SUB_225	MCBAIN	CB0477	4.841868	0.000000	500.000000	0.500000	0.000000
SUB_226	MCBAIN	MH0621	1.766728	0.000000	500.000000	0.500000	0.000000
SUB_227	MCBAIN	MH0120	5.352112	0.000000	500.000000	0.500000	0.000000
SUB_228	MCBAIN	MH0484	3.375523	0.000000	500.000000	0.500000	0.000000
SUB_229	MCBAIN	MH0465	12.085411	0.000000	500.000000	0.500000	0.000000
SUB_230	MCBAIN	CB5090	2.879665	0.000000	500.000000	0.500000	0.000000
SUB_231	MCBAIN	MH0410	2.327000	0.000000	500.000000	0.500000	0.000000
SUB_232	MCBAIN	MH0600	5.655810	0.000000	500.000000	0.500000	0.000000
SUB_233	MCBAIN	MH0602	1.137586	0.000000	500.000000	0.500000	0.000000
SUB_234	MCBAIN	CB1002	9.861854	0.000000	500.000000	0.500000	0.000000
SUB_235	MCBAIN	MH0317	6.067263	0.000000	500.000000	0.500000	0.000000
SUB_236	MCBAIN	CB1323	10.307561	0.000000	500.000000	0.500000	0.000000
SUB_237	MCBAIN	MH0175	6.937562	0.000000	500.000000	0.500000	0.000000
SUB_238	MCBAIN	CB1027	6.385850	0.000000	500.000000	0.500000	0.000000
SUB_239	MCBAIN	CB0366	5.271222	0.000000	500.000000	0.500000	0.000000
SUB_240	MCBAIN	MH0131	6.017502	0.000000	500.000000	0.500000	0.000000
SUB_241	MCBAIN	MH0191	4.393645	0.000000	500.000000	0.500000	0.000000
SUB_242	MCBAIN	MH0713	5.433885	0.000000	500.000000	0.500000	0.000000
SUB_243	MCBAIN	CB0294	3.052398	0.000000	500.000000	0.500000	0.000000
SUB_244	MCBAIN	MH0133	2.622006	0.000000	500.000000	0.500000	0.000000
SUB_245	MCBAIN	MH0630	1.568306	0.000000	500.000000	0.500000	0.000000
SUB_246	MCBAIN	CB1526	5.472408	0.000000	500.000000	0.500000	0.000000
SUB_247	MCBAIN	MH0126	3.149564	0.000000	500.000000	0.500000	0.000000
SUB_248	MCBAIN	MDOT-MH0437	4.255227	0.000000	500.000000	0.500000	0.000000
SUB_249	MCBAIN	MDOT-MH0438	1.959564	0.000000	500.000000	0.500000	0.000000
SUB_250	MCBAIN	MDOT-MH0717	1.336247	0.000000	500.000000	0.500000	0.000000
SUB_251	MCBAIN	MDOT-MH0439	1.333443	0.000000	500.000000	0.500000	0.000000
SUB_252	MCBAIN	MDOT-CB1189	0.628919	0.000000	500.000000	0.500000	0.000000
SUB_253	MCBAIN	MH0125	3.575251	0.000000	500.000000	0.500000	0.000000
SUB_254	MCBAIN	MH0148	2.741382	0.000000	500.000000	0.500000	0.000000
SUB_255	MCBAIN	MAYGARFIELD	2.116653	0.000000	500.000000	0.500000	0.000000
SUB_256	MCBAIN	MAYGARFIELD	1.382556	0.000000	500.000000	0.500000	0.000000
SUB_257	MCBAIN	MH0620	2.150714	0.000000	500.000000	0.500000	0.000000
SUB_258	MCBAIN	MDOT-CB0097	2.242379	0.000000	500.000000	0.500000	0.000000
SUB_259	MCBAIN	MDOT-CB0102	0.642697	0.000000	500.000000	0.500000	0.000000
SUB_260	MCBAIN	MH0288	1.069978	0.000000	500.000000	0.500000	0.000000
SUB_261	MCBAIN	CB0094	1.918247	0.000000	500.000000	0.500000	0.000000
SUB_263	MCBAIN	MDOT-CB0250A	1.299096	0.000000	500.000000	0.500000	0.000000
SUB_264	MCBAIN	CB0010	1.013261	0.000000	500.000000	0.500000	0.000000
SUB_265	MCBAIN	MH0001	0.791686	0.000000	500.000000	0.500000	0.000000
SUB_266	MCBAIN	CB6001	0.477280	0.000000	500.000000	0.500000	0.000000
SUB_267	MCBAIN	MH0007	0.405912	0.000000	500.000000	0.500000	0.000000
SUB_268	MCBAIN	MH0286	0.590641	0.000000	500.000000	0.500000	0.000000
SUB_269	MCBAIN	CB0019	0.899790	0.000000	500.000000	0.500000	0.000000
SUB_270	MCBAIN	MH0013	2.122609	0.000000	500.000000	0.500000	0.000000
SUB_271	MCBAIN	MH0284	1.523649	0.000000	500.000000	0.500000	0.000000
SUB_272	MCBAIN	MH0519	5.012959	0.000000	500.000000	0.500000	0.000000
SUB_274	MCBAIN	MH0308	3.931539	0.000000	500.000000	0.500000	0.000000
SUB_275	MCBAIN	MH0318A	3.141532	0.000000	500.000000	0.500000	0.000000
SUB_276	MCBAIN	MH0314	2.954180	0.000000	500.000000	0.500000	0.000000
SUB_277	MCBAIN	MH0324	2.910118	0.000000	500.000000	0.500000	0.000000
SUB_278	MCBAIN	MH0632	4.974039	0.000000	500.000000	0.500000	0.000000
SUB_279	MCBAIN	CB0612	3.500893	0.000000	500.000000	0.500000	0.000000
SUB_280	MCBAIN	MH0334	2.146211	0.000000	500.000000	0.500000	0.000000
SUB_281	MCBAIN	MH0081	5.788416	0.000000	500.000000	0.500000	0.000000
SUB_282	MCBAIN	MH0344	3.287309	0.000000	500.000000	0.500000	0.000000
SUB_283	MCBAIN	CB0788	3.362148	0.000000	500.000000	0.500000	0.000000
SUB_284	MCBAIN	CB0789	2.753659	0.000000	500.000000	0.500000	0.000000
SUB_285	MCBAIN	MH0405	4.632636	0.000000	500.000000	0.500000	0.000000
SUB_286	MCBAIN	CB0772	4.860575	0.000000	500.000000	0.500000	0.000000
SUB_287	MCBAIN	MH0401	4.168477	0.000000	500.000000	0.500000	0.000000
SUB_288	MCBAIN	MH0397	6.898633	0.000000	500.000000	0.500000	0.000000
SUB_289	MCBAIN	MH0556	3.590260	0.000000	500.000000	0.500000	0.000000
SUB_290	MCBAIN	MH0383	6.236078	0.000000	500.000000	0.500000	0.000000
SUB_291	MCBAIN	MH0392	1.533758	0.000000	500.000000	0.500000	0.000000
SUB_292	MCBAIN	MH0393	3.045954	0.000000	500.000000	0.500000	0.000000
SUB_293	MCBAIN	MH0577	3.572682	0.000000	500.000000	0.500000	0.000000
SUB_296	MCBAIN	CB0485	4.643339	0.000000	500.000000	0.500000	0.000000
SUB_297	MCBAIN	MH0240	2.494236	0.000000	500.000000	0.500000	0.000000
SUB_298	MCBAIN	MH0256	11.756909	0.000000	500.000000	0.500000	0.000000
SUB_299	MCBAIN	CB0507	3.746241	0.000000	500.000000	0.500000	0.000000
SUB_300	MCBAIN	MH0274	6.188659	0.000000	500.000000	0.500000	0.000000
SUB_301	MCBAIN	CB0520	5.147212	0.000000	500.000000	0.500000	0.000000
SUB_302	MCBAIN	CB1108	5.006674	0.000000	500.000000	0.500000	0.000000
SUB_303	MCBAIN	MH0361	0.389378	0.000000	500.000000	0.500000	0.000000
SUB_304	MCBAIN	MH0356	1.319086	0.000000	500.000000	0.500000	0.000000
SUB_305	MCBAIN	MH0357	0.748072	0.000000	500.000000	0.500000	0.000000
SUB_306	MCBAIN	CB1226	1.464378	0.000000	500.000000	0.500000	0.000000
SUB_307	MCBAIN	MH0377	0.571301	0.000000	500.000000	0.500000	0.000000
SUB_308	MCBAIN	MH0377	0.532105	0.000000	500.000000	0.500000	0.000000
SUB_309	MCBAIN	MH0377	2.308490	0.000000	500.000000	0.500000	0.000000
SUB_311	MCBAIN	MH0023	1.173013	0.000000	500.000000	0.500000	0.000000
SUB_313	MCBAIN	CB1236	3.072392	0.000000	500.000000	0.500000	0.000000
SUB_314	MCBAIN	MH0503	1.044392	0.000000	500.000000	0.500000	0.000000
SUB_315	MCBAIN	MDOT-MH0367	1.466574	0.000000	500.000000	0.500000	0.000000
SUB_316	MCBAIN	MDOT-MH0372	1.806431	0.000000	500.000000	0.500000	0.000000
SUB_317	MCBAIN	MDOT-MH0374A	1.210896	0.000000	500.000000	0.500000	0.000000
SUB_318	MCBAIN	MH0248	2.788709	0.000000	500.000000	0.500000	0.000000
SUB_319	MCBAIN	CB0054	1.471397	0.000000	500.000000	0.500000	0.000000
SUB_320	MCBAIN	MH0079A	1.124485	0.000000	500.000000	0.500000	0.000000
SUB_321	MCBAIN	CB1241	0.790821	0.000000	500.000000	0.500000	0.000000
SUB_322	MCBAIN	MH0015	1.584297	0.000000	500.000000	0.500000	0.000000
SUB_323	MCBAIN	MH0025	0.422940	0.000000	500.000000	0.500000	0.000000
SUB_324	MCBAIN	CB1253	1.144070	0.000000	500.000000	0.500000	0.000000
SUB_325	MCBAIN	CB1249	1.091921	0.000000	500.000000	0.500000	0.000000
SUB_326	MCBAIN	CB0143	1.546452	0.000000	500.000000	0.500000	0.000000
SUB_327	MCBAIN	MDOT-CB1401	0.451167	0.000000	500.000000	0.500000	0.000000
SUB_328	MCBAIN	MH0050	0.912419	0.000000	500.000000	0.500000	0.000000
SUB_329	MCBAIN	MH0048	1.566567	0.000000	500.000000	0.500000	0.000000
SUB_330	MCBAIN	MH0058	5.398322	0.000000	500.000000	0.500000	0.000000
SUB_331	MCBAIN	MH0054	4.461284	0.000000	500.000000	0.500000	0.000000
SUB_332	MCBAIN	MH0666	2.398866	0.000000	500.000000	0.500000	0.000000
SUB_333	MCBAIN	MH0066	3.934694	0.000000	500.000000	0.500000	0.000000
SUB_334	MCBAIN	MH0140	10.406922	0.000000	500.000000	0.500000	0.000000
SUB_335	MCBAIN	CB0347	3.064229	0.000000	500.000000	0.500000	0.000000
SUB_336	MCBAIN	CB5065	11.461937	0.000000	500.000000	0.500000	0.000000
SUB_337	MCBAIN	CB0470	3.177947	0.000000	500.000000	0.500000	0.000000
SUB_338	MCBAIN	MH0096	4.890241	0.000000	500.000000	0.500000	0.000000
SUB_339	MCBAIN	CB1259	1.996294	0.000000	500.000000	0.500000	0.000000
SUB_340	MCBAIN	MH0681	0.496200	0.000000	500.000000	0.500000	0.000000
SUB_341	MCBAIN	MH0714	3.337316	0.000000	500.000000	0.500000	0.000000
SUB_342	MCBAIN	MH0063	5.084278	0.000000	500.000000	0.500000	0.000000
SUB_343	MCBAIN	CB0127	1.045735	0.000000	500.000000	0.500000	0.000000
SUB_344	MCBAIN	MH0046	0.829561	0.000000	500.000000	0.500000	0.000000
SUB_345	MCBAIN	MDOT-CB0132A	1.343079	0.000000	500.000000	0.500000	0.000000
SUB_346	MCBAIN	MH0030	1.282870	0.000000	500.000000	0.500000	0.000000
SUB_347	MCBAIN	CB6002	1.171874	0.000000	500.000000	0.500000	0.000000
SUB_348	MCBAIN	MH0587	1.539371	0.000000	500.000000	0.500000	0.000000
SUB_349	MCBAIN	MH0039	4.590318	0.000000	500.000000	0.500000	0.000000
SUB_350	MCBAIN	MH0038	2.342344	0.000000	500.000000	0.500000	0.000000
SUB_351	MCBAIN	MH0116	3.949548	0.000000	500.000000	0.500000	0.000000
SUB_352	MCBAIN	CB0373	2.417977	0.000000	500.000000	0.500000	0.000000
SUB_353	MCBAIN	MH0173	4.051071	0.000000	500.000000	0.500000	0.000000
SUB_354	MCBAIN	MDOT-MH0231	2.741238	0.000000	500.000000	0.500000	0.000000
SUB_355	MCBAIN	MH0491	2.780910	0.000000	500.000000	0.500000	0.000000
SUB_356	MCBAIN	MH0485	4.543340	0.000000	500.000000	0.500000	0.000000
SUB_357	MCBAIN	MH0480	2.587998	0.000000	500.000000	0.500000	0.000000
SUB_358	MCBAIN	MH0483	5.445321	0.000000	500.000000	0.500000	0.000000
SUB_359	MCBAIN	MH0481	3.945021	0.000000	500.000000	0.500000	0.000000
SUB_360	MCBAIN	MH0479	3.768372	0.000000	500.000000	0.500000	0.000000
SUB_361	MCBAIN	MH0022	3.511319	0.000000	500.000000	0.500000	0.000000
SUB_362	MCBAIN	MH0476	5.259586	0.000000	500.000000	0.500000	0.000000
SUB_364	MCBAIN	MH0415	4.108185	0.000000	500.000000	0.500000	0.000000
SUB_365	MCBAIN	MH0414	1.442212	0.000000	500.000000	0.500000	0.000000
SUB_366	MCBAIN	CB0999	2.349686	0.000000	500.000000	0.500000	0.000000
SUB_367	MCBAIN	CB0993	2.405274	0.000000	500.000000	0.500000	0.000000
SUB_368	MCBAIN	MH0550	5.685179	0.000000	500.000000	0.500000	0.000000
SUB_369	MCBAIN	MH0551	1.547092	0.000000	500.000000	0.500000	0.000000
SUB_370	MCBAIN	MH0433	6.884067	0.000000	500.000000	0.500000	0.000000
SUB_371	MCBAIN	MH0597	6.556045	0.000000	500.000000	0.500000	0.000000
SUB_372	MCBAIN	MH0427	2.208952	0.000000	500.000000	0.500000	0.000000
SUB_373	MCBAIN	MH0671	2.635458	0.000000	500.000000	0.500000	0.000000
SUB_374	MCBAIN	MH0428	1.592853	0.000000	500.000000	0.500000	0.000000
SUB_375	MCBAIN	MH0678	0.860856	0.000000	500.000000	0.500000	0.000000
SUB_376	MCBAIN	MH0658	1.646004	0.000000	500.000000	0.500000	0.000000
SUB_377	MCBAIN	MH0421	3.574406	0.000000	500.000000	0.500000	0.000000
SUB_379	MCBAIN	CB0799	0.490970	0.000000	500.000000	0.500000	0.000000
SUB_380	MCBAIN	CB0802	2.486968	0.000000	500.000000	0.500000	0.000000
SUB_381	MCBAIN	MH0544	1.270331	0.000000	500.000000	0.500000	0.000000
SUB_383	MCBAIN	MH0534	2.214367	0.000000	500.000000	0.500000	0.000000
SUB_384	MCBAIN	MH0296	1.579621	0.000000	500.000000	0.500000	0.000000
SUB_385	MCBAIN	MH0298	1.194963	0.000000	500.000000	0.500000	0.000000
SUB_386	MCBAIN	MH0655	1.763991	0.000000	500.000000	0.500000	0.000000
SUB_387	MCBAIN	MH0536	2.102490	0.000000	500.000000	0.500000	0.000000
SUB_388	MCBAIN	CB0387	1.988453	0.000000	500.000000	0.500000	0.000000
SUB_389	MCBAIN	CB0371	3.175762	0.000000	500.000000	0.500000	0.000000
SUB_390	MCBAIN	MH0451	5.149842	0.000000	500.000000	0.500000	0.000000
SUB_391	MCBAIN	MH0456	8.801002	0.000000	500.000000	0.500000	0.000000
SUB_392	MCBAIN	MH0145	6.613851	0.000000	500.000000	0.500000	0.000000
SUB_393	MCBAIN	CB0337	3.232679	0.000000	500.000000	0.500000	0.000000
SUB_394	MCBAIN	MH0586	2.040720	0.000000	500.000000	0.500000	0.000000
SUB_395	MCBAIN	MH0060	1.179008	0.000000	500.000000	0.500000	0.000000
SUB_396	MCBAIN	MH0219	9.182176	0.000000	500.000000	0.500000	0.000000
SUB_397	MCBAIN	MH0168	5.252969	0.000000	500.000000	0.500000	0.000000
SUB_398	MCBAIN	MH0079	6.083016	0.000000	500.000000	0.500000	0.000000
SUB_399	MCBAIN	MDOT-CB0462	2.128930	0.000000	500.000000	0.500000	0.000000
SUB_400	MCBAIN	MH0684	0.957491	0.000000	500.000000	0.500000	0.000000
SUB_401	MCBAIN	MH0102	0.732294	0.000000	500.000000	0.500000	0.000000
SUB_403	MCBAIN	CB1016	2.982420	0.000000	500.000000	0.500000	0.000000
SUB_404	MCBAIN	CB0115	1.352150	0.000000	500.000000	0.500000	0.000000
SUB_406	MCBAIN	MH0360	0.410253	0.000000	500.000000	0.500000	0.000000
SUB_407	MCBAIN	MH0500	0.432999	0.000000	500.000000	0.500000	0.000000
SUB_408	MCBAIN	MH0502	1.514444	0.000000	500.000000	0.500000	0.000000
SUB_409	MCBAIN	MDOT-MH0570	1.157815	0.000000	500.000000	0.500000	0.000000
SUB_410	MCBAIN	MDOT-MH0700	2.133845	0.000000	500.000000	0.500000	0.000000
SUB_411	MCBAIN	CB1219	3.143833	0.000000	500.000000	0.500000	0.000000
SUB_412	MCBAIN	MH0342	3.319110	0.000000	500.000000	0.500000	0.000000
SUB_413	MCBAIN	MH0272	4.791910	0.000000	500.000000	0.500000	0.000000

[SUBAREAS]
SUB_001	0.100000	0.001000	0.050000	0.050000	25.000000	OUTLET
SUB_002	0.100000	0.001000	0.050000	0.050000	25.000000	OUTLET
SUB_004	0.100000	0.001000	0.050000	0.050000	25.000000	OUTLET
SUB_005	0.100000	0.001000	0.050000	0.050000	25.000000	OUTLET
SUB_007	0.100000	0.001000	0.050000	0.050000	25.000000	OUTLET
SUB_008	0.100000	0.001000	0.050000	0.050000	25.000000	OUTLET
SUB_009	0.100000	0.001000	0.050000	0.050000	25.000000	OUTLET
SUB_010	0.100000	0.001000	0.050000	0.050000	25.000000	OUTLET
SUB_011	0.100000	0.001000	0.050000	0.050000	25.000000	OUTLET
SUB_012	0.100000	0.001000	0.050000	0.050000	25.000000	OUTLET
SUB_013	0.100000	0.001000	0.050000	0.050000	25.000000	OUTLET
SUB_014	0.100000	0.001000	0.050000	0.050000	25.000000	OUTLET
SUB_015	0.100000	0.001000	0.050000	0.050000	25.000000	OUTLET
SUB_016	0.100000	0.001000	0.050000	0.050000	25.000000	OUTLET
SUB_017	0.100000	0.001000	0.050000	0.050000	25.000000	OUTLET
SUB_018	0.100000	0.001000	0.050000	0.050000	25.000000	OUTLET
SUB_019	0.100000	0.001000	0.050000	0.050000	25.000000	OUTLET
SUB_020	0.100000	0.001000	0.050000	0.050000	25.000000	OUTLET
SUB_022	0.100000	0.001000	0.050000	0.050000	25.000000	OUTLET
SUB_023	0.100000	0.001000	0.050000	0.050000	25.000000	OUTLET
SUB_024	0.100000	0.001000	0.050000	0.050000	25.000000	OUTLET
SUB_025	0.100000	0.001000	0.050000	0.050000	25.000000	OUTLET
SUB_026	0.100000	0.001000	0.050000	0.050000	25.000000	OUTLET
SUB_029	0.100000	0.001000	0.050000	0.050000	25.000000	OUTLET
SUB_031	0.100000	0.001000	0.050000	0.050000	25.000000	OUTLET
SUB_032	0.100000	0.001000	0.050000	0.050000	25.000000	OUTLET
SUB_034	0.100000	0.001000	0.050000	0.050000	25.000000	OUTLET
SUB_035	0.100000	0.001000	0.050000	0.050000	25.000000	OUTLET
SUB_036	0.100000	0.001000	0.050000	0.050000	25.000000	OUTLET
SUB_037	0.100000	0.001000	0.050000	0.050000	25.000000	OUTLET
SUB_044	0.100000	0.001000	0.050000	0.050000	25.000000	OUTLET
SUB_045	0.100000	0.001000	0.050000	0.050000	25.000000	OUTLET
SUB_058	0.100000	0.001000	0.050000	0.050000	25.000000	OUTLET
SUB_059	0.100000	0.001000	0.050000	0.050000	25.000000	OUTLET
SUB_060	0.100000	0.001000	0.050000	0.050000	25.000000	OUTLET
SUB_064	0.100000	0.001000	0.050000	0.050000	25.000000	OUTLET
SUB_066	0.100000	0.001000	0.050000	0.050000	25.000000	OUTLET
SUB_067	0.100000	0.001000	0.050000	0.050000	25.000000	OUTLET
SUB_068	0.100000	0.001000	0.050000	0.050000	25.000000	OUTLET
SUB_069	0.100000	0.001000	0.050000	0.050000	25.000000	OUTLET
SUB_070	0.100000	0.001000	0.050000	0.050000	25.000000	OUTLET
SUB_075	0.100000	0.001000	0.050000	0.050000	25.000000	OUTLET
SUB_086	0.100000	0.001000	0.050000	0.050000	25.000000	OUTLET
SUB_102	0.100000	0.001000	0.050000	0.050000	25.000000	OUTLET
SUB_107	0.100000	0.001000	0.050000	0.050000	25.000000	OUTLET
SUB_116	0.100000	0.001000	0.050000	0.050000	25.000000	OUTLET
SUB_117	0.100000	0.001000	0.050000	0.050000	25.000000	OUTLET
SUB_118	0.100000	0.001000	0.050000	0.050000	25.000000	OUTLET
SUB_122	0.100000	0.001000	0.050000	0.050000	25.000000	OUTLET
SUB_132	0.100000	0.001000	0.050000	0.050000	25.000000	OUTLET
SUB_133	0.100000	0.001000	0.050000	0.050000	25.000000	OUTLET
SUB_134	0.100000	0.001000	0.050000	0.050000	25.000000	OUTLET
SUB_135	0.100000	0.001000	0.050000	0.050000	25.000000	OUTLET
SUB_136	0.100000	0.001000	0.050000	0.050000	25.000000	OUTLET
SUB_137	0.100000	0.001000	0.050000	0.050000	25.000000	OUTLET
SUB_138	0.100000	0.001000	0.050000	0.050000	25.000000	OUTLET
SUB_139	0.100000	0.001000	0.050000	0.050000	25.000000	OUTLET
SUB_140	0.100000	0.001000	0.050000	0.050000	25.000000	OUTLET
SUB_141	0.100000	0.001000	0.050000	0.050000	25.000000	OUTLET
SUB_142	0.100000	0.001000	0.050000	0.050000	25.000000	OUTLET
SUB_143	0.100000	0.001000	0.050000	0.050000	25.000000	OUTLET
SUB_144	0.100000	0.001000	0.050000	0.050000	25.000000	OUTLET
SUB_145	0.100000	0.001000	0.050000	0.050000	25.000000	OUTLET
SUB_146	0.100000	0.001000	0.050000	0.050000	25.000000	OUTLET
SUB_149	0.100000	0.001000	0.050000	0.050000	25.000000	OUTLET
SUB_150	0.100000	0.001000	0.050000	0.050000	25.000000	OUTLET
SUB_152	0.100000	0.001000	0.050000	0.050000	25.000000	OUTLET
SUB_153	0.100000	0.001000	0.050000	0.050000	25.000000	OUTLET
SUB_154	0.100000	0.001000	0.050000	0.050000	25.000000	OUTLET
SUB_155	0.100000	0.001000	0.050000	0.050000	25.000000	OUTLET
SUB_156	0.100000	0.001000	0.050000	0.050000	25.000000	OUTLET
SUB_157	0.100000	0.001000	0.050000	0.050000	25.000000	OUTLET
SUB_158	0.100000	0.001000	0.050000	0.050000	25.000000	OUTLET
SUB_159	0.100000	0.001000	0.050000	0.050000	25.000000	OUTLET
SUB_160	0.100000	0.001000	0.050000	0.050000	25.000000	OUTLET
SUB_161	0.100000	0.001000	0.050000	0.050000	25.000000	OUTLET
SUB_162	0.100000	0.001000	0.050000	0.050000	25.000000	OUTLET
SUB_163	0.100000	0.001000	0.050000	0.050000	25.000000	OUTLET
SUB_164	0.100000	0.001000	0.050000	0.050000	25.000000	OUTLET
SUB_165	0.100000	0.001000	0.050000	0.050000	25.000000	OUTLET
SUB_168	0.100000	0.001000	0.050000	0.050000	25.000000	OUTLET
SUB_169	0.100000	0.001000	0.050000	0.050000	25.000000	OUTLET
SUB_170	0.100000	0.001000	0.050000	0.050000	25.000000	OUTLET
SUB_171	0.100000	0.001000	0.050000	0.050000	25.000000	OUTLET
SUB_172	0.100000	0.001000	0.050000	0.050000	25.000000	OUTLET
SUB_173	0.100000	0.001000	0.050000	0.050000	25.000000	OUTLET
SUB_174	0.100000	0.001000	0.050000	0.050000	25.000000	OUTLET
SUB_175	0.100000	0.001000	0.050000	0.050000	25.000000	OUTLET
SUB_176	0.100000	0.001000	0.050000	0.050000	25.000000	OUTLET
SUB_178	0.100000	0.001000	0.050000	0.050000	25.000000	OUTLET
SUB_179	0.100000	0.001000	0.050000	0.050000	25.000000	OUTLET
SUB_184	0.100000	0.001000	0.050000	0.050000	25.000000	OUTLET
SUB_185	0.100000	0.001000	0.050000	0.050000	25.000000	OUTLET
SUB_186	0.100000	0.001000	0.050000	0.050000	25.000000	OUTLET
SUB_187	0.100000	0.001000	0.050000	0.050000	25.000000	OUTLET
SUB_188	0.100000	0.001000	0.050000	0.050000	25.000000	OUTLET
SUB_189	0.100000	0.001000	0.050000	0.050000	25.000000	OUTLET
SUB_190	0.100000	0.001000	0.050000	0.050000	25.000000	OUTLET
SUB_191	0.100000	0.001000	0.050000	0.050000	25.000000	OUTLET
SUB_192	0.100000	0.001000	0.050000	0.050000	25.000000	OUTLET
SUB_193	0.100000	0.001000	0.050000	0.050000	25.000000	OUTLET
SUB_194	0.100000	0.001000	0.050000	0.050000	25.000000	OUTLET
SUB_197	0.100000	0.001000	0.050000	0.050000	25.000000	OUTLET
SUB_198	0.100000	0.001000	0.050000	0.050000	25.000000	OUTLET
SUB_199	0.100000	0.001000	0.050000	0.050000	25.000000	OUTLET
SUB_200	0.100000	0.001000	0.050000	0.050000	25.000000	OUTLET
SUB_201	0.100000	0.001000	0.050000	0.050000	25.000000	OUTLET
SUB_202	0.100000	0.001000	0.050000	0.050000	25.000000	OUTLET
SUB_203	0.100000	0.001000	0.050000	0.050000	25.000000	OUTLET
SUB_204	0.100000	0.001000	0.050000	0.050000	25.000000	OUTLET
SUB_205	0.100000	0.001000	0.050000	0.050000	25.000000	OUTLET
SUB_206	0.100000	0.001000	0.050000	0.050000	25.000000	OUTLET
SUB_207	0.100000	0.001000	0.050000	0.050000	25.000000	OUTLET
SUB_208	0.100000	0.001000	0.050000	0.050000	25.000000	OUTLET
SUB_209	0.100000	0.001000	0.050000	0.050000	25.000000	OUTLET
SUB_210	0.100000	0.001000	0.050000	0.050000	25.000000	OUTLET
SUB_211	0.100000	0.001000	0.050000	0.050000	25.000000	OUTLET
SUB_212	0.100000	0.001000	0.050000	0.050000	25.000000	OUTLET
SUB_213	0.100000	0.001000	0.050000	0.050000	25.000000	OUTLET
SUB_214	0.100000	0.001000	0.050000	0.050000	25.000000	OUTLET
SUB_215	0.100000	0.001000	0.050000	0.050000	25.000000	OUTLET
SUB_216	0.100000	0.001000	0.050000	0.050000	25.000000	OUTLET
SUB_217	0.100000	0.001000	0.050000	0.050000	25.000000	OUTLET
SUB_218	0.100000	0.001000	0.050000	0.050000	25.000000	OUTLET
SUB_219	0.100000	0.001000	0.050000	0.050000	25.000000	OUTLET
SUB_220	0.100000	0.001000	0.050000	0.050000	25.000000	OUTLET