[TITLE]
;;Project Title/Notes


[OPTIONS]
;;Option             Value
FLOW_UNITS           CMS
INFILTRATION         HORTON
FLOW_ROUTING         DYNWAVE
LINK_OFFSETS         DEPTH
MIN_SLOPE            0
ALLOW_PONDING        NO
SKIP_STEADY_STATE    NO

START_DATE           05/21/2007
START_TIME           20:00:00
REPORT_START_DATE    05/21/2007
REPORT_START_TIME    20:00:00
END_DATE             05/23/2007
END_TIME             00:00:00
SWEEP_START          01/01
SWEEP_END            12/31
DRY_DAYS             0
REPORT_STEP          00:05:00
WET_STEP             00:01:00
DRY_STEP             24:00:00
ROUTING_STEP         0:00:05 

INERTIAL_DAMPING     PARTIAL
NORMAL_FLOW_LIMITED  FROUDE
FORCE_MAIN_EQUATION  H-W
VARIABLE_STEP        0.75
LENGTHENING_STEP     5
MIN_SURFAREA         1.14
MAX_TRIALS           8
HEAD_TOLERANCE       0.0015
SYS_FLOW_TOL         5
LAT_FLOW_TOL         5
MINIMUM_STEP         0.5
THREADS              1

[EVAPORATION]
;;Data Source    Parameters
;;-------------- ----------------
CONSTANT         0.0
DRY_ONLY         NO

[RAINGAGES]
;;Name           Format    Interval SCF      Source    
;;-------------- --------- ------ ------ ----------
CDA~2YR~3HR~10~180 INTENSITY 0.16667  1.0      TIMESERIES RN#12           

[SUBCATCHMENTS]
;;Name           Rain Gage        Outlet           Area     %Imperv  Width    %Slope   CurbLen  SnowPack        
;;-------------- ---------------- ---------------- -------- -------- -------- -------- -------- ----------------
2004#1           CDA~2YR~3HR~10~180 2004             2.393    63       54.058   1.14     0                        
2005#1           CDA~2YR~3HR~10~180 2005             0.841    74       44.45    5.87     0                        
2006#1           CDA~2YR~3HR~10~180 2006             3.464    78       85.292   7.38     0                        
2007#1           CDA~2YR~3HR~10~180 2007             1.057    70       57.173   4.75     0                        
2008#1           CDA~2YR~3HR~10~180 2008             0.229    100      19.368   4.35     0                        
2009#1           CDA~2YR~3HR~10~180 2009             0.949    100      23.016   4.85     0                        
2012#1           CDA~2YR~3HR~10~180 2012             0.803    100      38.649   4.13     0                        
2014#1           CDA~2YR~3HR~10~180 2014             2.412    95       47.561   4.1      0                        
2015#1           CDA~2YR~3HR~10~180 2015             0.482    97       34.061   2.47     0                        
2016#1           CDA~2YR~3HR~10~180 2016             1.034    100      51.781   4.51     0                        
2017#1           CDA~2YR~3HR~10~180 2017             1.767    87       58.245   3.87     0                        
2020#1           CDA~2YR~3HR~10~180 2020             0.727    43       47.203   2.26     0                        
2021#1           CDA~2YR~3HR~10~180 2021             2.244    28       53.247   0.58     0                        
2022#1           CDA~2YR~3HR~10~180 2022             2.855    100      64.115   4.32     0                        
2023#1           CDA~2YR~3HR~10~180 2023             1.241    95       61.569   4.99     0                        
2024#1           CDA~2YR~3HR~10~180 2024             2.834    100      47.367   4.87     0                        
2025#1           CDA~2YR~3HR~10~180 2025             0.959    100      21.291   4.85     0                        
2026#1           CDA~2YR~3HR~10~180 2026             2.573    98       37.791   4.84     0                        
2028#1           CDA~2YR~3HR~10~180 2028             2.34     31       65.253   1.97     0                        
2029#1           CDA~2YR~3HR~10~180 2029             1.827    28       50.97    2.94     0                        
2030#1           CDA~2YR~3HR~10~180 2030             2.552    29       55.464   0.93     0                        
2032#1           CDA~2YR~3HR~10~180 2032             5.634    41       130.113  1.46     0                        
2034#1           CDA~2YR~3HR~10~180 2034             1.538    35       109.1    1.06     0                        
2036#1           CDA~2YR~3HR~10~180 2036             1.926    67       67.3     1.06     0                        
2037#1           CDA~2YR~3HR~10~180 2037             0.521    100      33.726   0.53     0                        
2038#1           CDA~2YR~3HR~10~180 2038             1.633    32       51.472   1.07     0                        
2039#1           CDA~2YR~3HR~10~180 2039             0.963    22       16.695   0.51     0                        
2040#1           CDA~2YR~3HR~10~180 2040             3.034    37       56.371   0.45     0                        
2041#1           CDA~2YR~3HR~10~180 2041             2.835    25       45.581   1.17     0                        
2042#1           CDA~2YR~3HR~10~180 2042             3.028    26       42.88    1.18     0                        
2044#1           CDA~2YR~3HR~10~180 2044             0.687    34       21.241   0.54     0                        
2045#1           CDA~2YR~3HR~10~180 2045             1.349    72       34.002   2.39     0                        
2046#1           CDA~2YR~3HR~10~180 2046             0.437    100      22.599   3.99     0                        
2047#1           CDA~2YR~3HR~10~180 2047             1.908    71       39.224   3.9      0                        
2049#1           CDA~2YR~3HR~10~180 2049             0.297    100      24.609   5.27     0                        
2060#1           CDA~2YR~3HR~10~180 2060             1.849    39       66.382   3.77     0                        
2062#1           CDA~2YR~3HR~10~180 2062             0.524    37       65.345   5.6      0                        
2067#1           CDA~2YR~3HR~10~180 2067             1.052    100      40.215   4.26     0                        
2068#1           CDA~2YR~3HR~10~180 2068             1.485    60       49.139   2.83     0                        
2069#1           CDA~2YR~3HR~10~180 2069             3.641    42       73.649   1.49     0                        
2070#1           CDA~2YR~3HR~10~180 2070             2.407    45       73.962   1.23     0                        
2072#1           CDA~2YR~3HR~10~180 2072             0.654    81       19.315   0.16     0                        
2073#1           CDA~2YR~3HR~10~180 2073             0.995    96       18.976   1.53     0                        
2075#1           CDA~2YR~3HR~10~180 2075             0.338    32       14.682   2.83     0                        
2076#1           CDA~2YR~3HR~10~180 2076             2.436    43       78.363   3.03     0                        
2077#1           CDA~2YR~3HR~10~180 2077             0.637    96       25.481   0.46     0                        
2079#1           CDA~2YR~3HR~10~180 2079             0.931    60       25.965   2.35     0                        
2080#1           CDA~2YR~3HR~10~180 2080             3.045    92       46.737   1.22     0                        
2081#1           CDA~2YR~3HR~10~180 2081             3.242    83       110.967  2.98     0                        
2082#1           CDA~2YR~3HR~10~180 2082             0.823    95       45.947   5.3      0                        
2086#1           CDA~2YR~3HR~10~180 2086             0.855    87       19.903   1.48     0                        
2087#1           CDA~2YR~3HR~10~180 2087             0.726    95       23.896   1.54     0                        
2089#1           CDA~2YR~3HR~10~180 2089             1.345    67       34.043   2.9      0                        
2090#1           CDA~2YR~3HR~10~180 2090             3.526    77       45.54    4.7      0                        
3068#1           CDA~2YR~3HR~10~180 3068             3.607    64       39.689   0.15     0                        
3070#1           CDA~2YR~3HR~10~180 3070             2.912    78       50.673   0.82     0                        
3092#1           CDA~2YR~3HR~10~180 3092             2.373    95       54.642   0.35     0                        
3093#1           CDA~2YR~3HR~10~180 3093             3.881    93       109.996  0.42     0                        
3150#1           CDA~2YR~3HR~10~180 3150             0.861    100      35.595   1.76     0                        
4001#1           CDA~2YR~3HR~10~180 4001             2.516    61       50.18    1.5      0                        
4002#1           CDA~2YR~3HR~10~180 4002             3.653    52       80.739   0.55     0                        
4003#1           CDA~2YR~3HR~10~180 4003             5.506    47       83.202   0.56     0                        
4004#1           CDA~2YR~3HR~10~180 4004             5.2      43       84.243   0.8      0                        
4006#1           CDA~2YR~3HR~10~180 4006             1.803    31       72.267   0.53     0                        
4007#1           CDA~2YR~3HR~10~180 4007             1.102    23       34.008   0.17     0                        
4008#1           CDA~2YR~3HR~10~180 4008             1.611    35       46.267   1.61     0                        
4011#1           CDA~2YR~3HR~10~180 4011             1.306    75       54.928   0.1      0                        
4013#1           CDA~2YR~3HR~10~180 4013             1.527    28       57.64    0.07     0                        
4014#1           CDA~2YR~3HR~10~180 4014             2.071    39       66.577   0.14     0                        
4015#1           CDA~2YR~3HR~10~180 4015             2.283    28       84.754   2.08     0                        
4016#1           CDA~2YR~3HR~10~180 4016             2.103    36       47.662   2.08     0                        
4017#1           CDA~2YR~3HR~10~180 4017             0.669    46       39.96    1.53     0                        
4018#1           CDA~2YR~3HR~10~180 4018             4.34     45       105.305  0.32     0                        
4020#1           CDA~2YR~3HR~10~180 4020             0.188    43       15.72    0.45     0                        
4021#1           CDA~2YR~3HR~10~180 4021             0.483    37       19.519   1.38     0                        
4022#1           CDA~2YR~3HR~10~180 4022             4.345    51       62.638   1.44     0                        
4024#1           CDA~2YR~3HR~10~180 4024             6.145    28       69.314   0.75     0                        
4025#1           CDA~2YR~3HR~10~180 4025             1.894    38       23.91    1.1      0                        
4026#1           CDA~2YR~3HR~10~180 4026             1.024    41       27.43    1.77     0                        
4027#1           CDA~2YR~3HR~10~180 4027             0.925    34       24.888   0.68     0                        
4028#1           CDA~2YR~3HR~10~180 4028             4.569    40       74.574   0.86     0                        
4029#1           CDA~2YR~3HR~10~180 4029             1.025    41       22.641   1.21     0                        
4030#1           CDA~2YR~3HR~10~180 4030             2.703    35       34.047   1.29     0                        
4031#1           CDA~2YR~3HR~10~180 4031             1.943    35       36.022   1.5      0                        
4032#1           CDA~2YR~3HR~10~180 4032             2.353    51       32.152   1.77     0                        
4033#1           CDA~2YR~3HR~10~180 4033             2.817    73       38.911   0.93     0                        
4034#1           CDA~2YR~3HR~10~180 4034             1.027    44       31.099   1.2      0                        
4035#1           CDA~2YR~3HR~10~180 4035             1.14     27       34.623   1.11     0                        
4036#1           CDA~2YR~3HR~10~180 4036             1.129    37       35.69    0.14     0                        
4037#1           CDA~2YR~3HR~10~180 4037             2.769    32       55.307   1.52     0                        
4038#1           CDA~2YR~3HR~10~180 4038             0.929    36       28.516   1.68     0                        
4039#1           CDA~2YR~3HR~10~180 4039             0.818    50       19.11    0.31     0                        
4040#1           CDA~2YR~3HR~10~180 4040             2.25     26       73.392   0.52     0                        
4041#1           CDA~2YR~3HR~10~180 4041             3.498    34       46.981   0.25     0                        
4042#1           CDA~2YR~3HR~10~180 4042             2.17     26       37.333   0.4      0                        
4044#1           CDA~2YR~3HR~10~180 4044             1.065    30       21.256   1.05     0                        
4046#1           CDA~2YR~3HR~10~180 4046             1.599    34       40.325   1.61     0                        
4047#1           CDA~2YR~3HR~10~180 4047             3.321    27       59.321   1.53     0                        
4048#1           CDA~2YR~3HR~10~180 4048             1.848    36       46.073   0.84     0                        
4049#1           CDA~2YR~3HR~10~180 4049             3.051    34       61.536   1.05     0                        
4050#1           CDA~2YR~3HR~10~180 4050             1.878    29       45.983   0.36     0                        
4051#1           CDA~2YR~3HR~10~180 4051             0.786    38       22.309   0.54     0                        
4052#1           CDA~2YR~3HR~10~180 4052             2.02     31       42.944   0.76     0                        
4053#1           CDA~2YR~3HR~10~180 4053             2.213    26       41.854   0.8      0                        
4056#1           CDA~2YR~3HR~10~180 4056             2.463    25       44.976   0.45     0                        
4057#1           CDA~2YR~3HR~10~180 4057             0.601    81       19.973   0.72     0                        
4058#1           CDA~2YR~3HR~10~180 4058             2.051    53       40.73    0.58     0                        
4059#1           CDA~2YR~3HR~10~180 4059             6.118    87       186.236  0.4      0                        
4060#1           CDA~2YR~3HR~10~180 4060             2.669    17       64.56    0.62     0                        
4061#1           CDA~2YR~3HR~10~180 4061             2.009    26       61.319   0.86     0                        
4062#1           CDA~2YR~3HR~10~180 4062             1.046    33       21.401   0.51     0                        
4063#1           CDA~2YR~3HR~10~180 4063             3.17     26       59.764   0.55     0                        
4064#1           CDA~2YR~3HR~10~180 4064             2.051    34       48.898   0.46     0                        
4065#1           CDA~2YR~3HR~10~180 4065             1.897    26       43.679   0.5      0                        
4066#1           CDA~2YR~3HR~10~180 4066             2.479    26       52.156   0.83     0                        
4067#1           CDA~2YR~3HR~10~180 4067             2.085    45       45.227   1.54     0                        
4068#1           CDA~2YR~3HR~10~180 4068             4.532    48       39.217   1.1      0                        
4071#1           CDA~2YR~3HR~10~180 4071             3.738    20       26.506   1.95     0                        
4073#1           CDA~2YR~3HR~10~180 4073             0.775    33       36.708   0.52     0                        
4074#1           CDA~2YR~3HR~10~180 4074             1.516    35       53.652   0.49     0                        
4075#1           CDA~2YR~3HR~10~180 4075             0.645    25       19.502   0.56     0                        
4076#1           CDA~2YR~3HR~10~180 4076             2.348    33       57.445   0.69     0                        
4077#1           CDA~2YR~3HR~10~180 4077             0.675    32       36.846   0.32     0                        
4078#1           CDA~2YR~3HR~10~180 4078             1.374    26       27.483   0.16     0                        
4079#1           CDA~2YR~3HR~10~180 4079             4.437    32       81.88    1.55     0                        
4083#1           CDA~2YR~3HR~10~180 4083             8.646    64       143.68   1.91     0                        
4085#1           CDA~2YR~3HR~10~180 4085             0.732    37       24.982   0.47     0                        
4087#1           CDA~2YR~3HR~10~180 4087             0.697    32       26.434   0.61     0                        
4089#1           CDA~2YR~3HR~10~180 4089             2.882    27       52.523   1.01     0                        
4090#1           CDA~2YR~3HR~10~180 4090             2.896    32       67.644   0.83     0                        
4091#1           CDA~2YR~3HR~10~180 4091             2.321    35       60.535   2.1      0                        
4092#1           CDA~2YR~3HR~10~180 4092             0.141    43       9.579    1.76     0                        
4093#1           CDA~2YR~3HR~10~180 4093             0.957    37       33.84    1.27     0                        
4094#1           CDA~2YR~3HR~10~180 4094             5.458    66       85.198   1.74     0                        
4095#1           CDA~2YR~3HR~10~180 4095             0.62     37       20.964   0.45     0                        
4096#1           CDA~2YR~3HR~10~180 4096             1.234    73       24.07    1.57     0                        
4098#1           CDA~2YR~3HR~10~180 4098             1.544    47       81.888   0.91     0                        
4099#1           CDA~2YR~3HR~10~180 4099             0.362    47       19.259   0.43     0                        
4100#1           CDA~2YR~3HR~10~180 4100             2.391    32       43.891   1        0                        
4101#1           CDA~2YR~3HR~10~180 4101             0.369    24       14.021   0.66     0                        
4102#1           CDA~2YR~3HR~10~180 4102             1.598    29       33.027   1        0                        
4103#1           CDA~2YR~3HR~10~180 4103             0.26     63       20.914   0.77     0                        
4105#1           CDA~2YR~3HR~10~180 4105             2.823    62       60.811   0.69     0                        
4106#1           CDA~2YR~3HR~10~180 4106             0.905    79       20.906   0.13     0                        
4107#1           CDA~2YR~3HR~10~180 4107             3.43     71       32.053   0.62     0                        
4108#1           CDA~2YR~3HR~10~180 4108             2.595    55       35.05    1.19     0                        
4109#1           CDA~2YR~3HR~10~180 4109             2.559    43       31.5     1.12     0                        
4110#1           CDA~2YR~3HR~10~180 4110             8.014    27       108.795  1.41     0                        
4113#1           CDA~2YR~3HR~10~180 4113             1.931    26       26.15    0.94     0                        
4114#1           CDA~2YR~3HR~10~180 4114             6.04     28       81.596   0.97     0                        
4118#1           CDA~2YR~3HR~10~180 4118             2.709    65       62.967   1.48     0                        
4126#1           CDA~2YR~3HR~10~180 4126             1.616    17       65.551   0.7      0                        
4128#1           CDA~2YR~3HR~10~180 4128             0.3      83       24.814   1.31     0                        
4131#1           CDA~2YR~3HR~10~180 4131             1.345    35       27.874   0.61     0                        
4132#1           CDA~2YR~3HR~10~180 4132             1.574    29       33.625   0.43     0                        
4133#1           CDA~2YR~3HR~10~180 4133             0.137    34       9.9      0.51     0                        
4135#1           CDA~2YR~3HR~10~180 4135             0.337    70       36.16    0.81     0                        
4138#1           CDA~2YR~3HR~10~180 4138             1.804    75       25.781   1.27     0                        
4139#1           CDA~2YR~3HR~10~180 4139             1.655    58       39.041   0.53     0                        
4141#1           CDA~2YR~3HR~10~180 4141             1.335    100      53.866   0.99     0                        
4144#1           CDA~2YR~3HR~10~180 4144             0.427    100      16.76    0.17     0                        
4147#1           CDA~2YR~3HR~10~180 4147             1.756    21       56.151   0.23     0                        
4148#1           CDA~2YR~3HR~10~180 4148             0.59     32       26.628   0.93     0                        
4150#1           CDA~2YR~3HR~10~180 4150             3.237    33       67.129   0.97     0                        
4152#1           CDA~2YR~3HR~10~180 4152             0.628    34       15.901   1.25     0                        
4153#1           CDA~2YR~3HR~10~180 4153             1.226    51       39.451   0.68     0                        
4155#1           CDA~2YR~3HR~10~180 4155             0.461    18       23.215   2.2      0                        
4156#1           CDA~2YR~3HR~10~180 4156             0.446    31       22.577   1.01     0                        
4159#1           CDA~2YR~3HR~10~180 4159             0.734    32       25.627   1.01     0                        
4160#1           CDA~2YR~3HR~10~180 4160             0.723    27       151.9    0.4      0                        
4162#1           CDA~2YR~3HR~10~180 4162             2.724    36       153.2    2.25     0                        
4166#1           CDA~2YR~3HR~10~180 4166             0.638    24       22.772   0.23     0                        
4167#1           CDA~2YR~3HR~10~180 4167             0.494    29       22.831   0.48     0                        
4169#1           CDA~2YR~3HR~10~180 4169             1.013    27       44.525   0.7      0                        
4171#1           CDA~2YR~3HR~10~180 4171             0.465    32       27.4     0.27     0                        
4202#1           CDA~2YR~3HR~10~180 4202             0.378    74       40.917   0.72     0                        
5025#1           CDA~2YR~3HR~10~180 5025             2.321    45       136.876  1.84     0                        
5046#1           CDA~2YR~3HR~10~180 5046             0.542    82       26.478   0.24     0                        
5051#1           CDA~2YR~3HR~10~180 5051             3.447    97       55.538   0.7      0                        
6024#1           CDA~2YR~3HR~10~180 6024             0.779    37       39.532   2.08     0                        
6025#1           CDA~2YR~3HR~10~180 6025             2.163    33       80.786   4.53     0                        
6026#1           CDA~2YR~3HR~10~180 6026             0.729    39       42.487   4.08     0                        
6032#1           CDA~2YR~3HR~10~180 6032             1.71     31       59.856   6.42     0                        
6038#1           CDA~2YR~3HR~10~180 6038             2.238    30       56.093   6.28     0                        
6040#1           CDA~2YR~3HR~10~180 6040             0.589    24       21.605   8.42     0                        
6054#1           CDA~2YR~3HR~10~180 6054             2.659    29       75.889   8.04     0                        
6055#1           CDA~2YR~3HR~10~180 6055             4.756    36       126.832  2.08     0                        
6059#1           CDA~2YR~3HR~10~180 6059             3.589    21       82.707   1.4      0                        
6061#1           CDA~2YR~3HR~10~180 6061             1.942    36       133.828  3.32     0                        
6063#1           CDA~2YR~3HR~10~180 6063             0.867    32       32.525   2.05     0                        
6065#1           CDA~2YR~3HR~10~180 6065             2.666    50       77.958   1.72     0                        
6067#1           CDA~2YR~3HR~10~180 6067             0.785    32       35.124   1.71     0                        
6072#1           CDA~2YR~3HR~10~180 6072             0.805    54       49.211   0.06     0                        
6075#1           CDA~2YR~3HR~10~180 6075             0.319    100      23.951   0.46     0                        
6078#1           CDA~2YR~3HR~10~180 6078             0.369    32       24.301   0.99     0                        
8012#1           CDA~2YR~3HR~10~180 8012             1.752    66       74.439   1.01     0                        
8013#1           CDA~2YR~3HR~10~180 8013             2.87     26       61.986   1.63     0                        
8014#1           CDA~2YR~3HR~10~180 8014             0.299    96       24.499   1.2      0                        
8015#1           CDA~2YR~3HR~10~180 8015             1.405    59       66.395   1.69     0                        
8016#1           CDA~2YR~3HR~10~180 8016             1.674    84       49.231   0.93     0                        
8018#1           CDA~2YR~3HR~10~180 8018             2.411    52       90.785   1.09     0                        
8020#1           CDA~2YR~3HR~10~180 8020             4.232    27       80.112   1.37     0                        
8021#1           CDA~2YR~3HR~10~180 8021             1.419    17       35.235   0.31     0                        
8024#1           CDA~2YR~3HR~10~180 8024             1.81     29       44.332   0.38     0                        
8025#1           CDA~2YR~3HR~10~180 8025             1.254    33       32.922   0.42     0                        
8026#1           CDA~2YR~3HR~10~180 8026             0.884    34       40.559   0.51     0                        
8027#1           CDA~2YR~3HR~10~180 8027             3.006    42       53.647   1.42     0                        
8028#1           CDA~2YR~3HR~10~180 8028             1.962    32       44.054   1.87     0                        
8029#1           CDA~2YR~3HR~10~180 8029             1.789    32       65.195   1.8      0                        
8031#1           CDA~2YR~3HR~10~180 8031             1.322    37       22.068   0.85     0                        
8032#1           CDA~2YR~3HR~10~180 8032             1.023    32       27.459   0.93     0                        
8033#1           CDA~2YR~3HR~10~180 8033             2.148    34       57.555   0.76     0                        
8035#1           CDA~2YR~3HR~10~180 8035             0.613    34       37.378   0.5      0                        
8036#1           CDA~2YR~3HR~10~180 8036             1.815    37       36.858   0.58     0                        
8037#1           CDA~2YR~3HR~10~180 8037             0.424    23       24.883   0.11     0                        
8038#1           CDA~2YR~3HR~10~180 8038             0.94     43       35.291   0.49     0                        
8039#1           CDA~2YR~3HR~10~180 8039             1.112    30       49.617   0.58     0                        
8040#1           CDA~2YR~3HR~10~180 8040             0.42     37       18.203   0.12     0                        
8041#1           CDA~2YR~3HR~10~180 8041             2.282    31       47.725   0.92     0                        
8042#1           CDA~2YR~3HR~10~180 8042             2.117    37       16.954   0.25     0                        
8044#1           CDA~2YR~3HR~10~180 8044             1.671    30       49.98    0.53     0                        
8045#1           CDA~2YR~3HR~10~180 8045             2.854    27       42.815   0.33     0                        
8046#1           CDA~2YR~3HR~10~180 8046             1.077    32       20.535   0.05     0                        
8047#1           CDA~2YR~3HR~10~180 8047             0.54     28       21.004   0.25     0                        
8048#1           CDA~2YR~3HR~10~180 8048             1.588    33       37.568   0.28     0                        
8049#1           CDA~2YR~3HR~10~180 8049             0.566    30       19.357   0.76     0                        
8051#1           CDA~2YR~3HR~10~180 8051             1.268    38       41.075   1.27     0                        
8053#1           CDA~2YR~3HR~10~180 8053             1.555    32       52.114   1.63     0                        
8055#1           CDA~2YR~3HR~10~180 8055             1.329    79       60.347   0.28     0                        
8057#1           CDA~2YR~3HR~10~180 8057             0.62     87       58.67    2.17     0                        
8059#1           CDA~2YR~3HR~10~180 8059             0.46     100      37.016   1.02     0                        
8064#1           CDA~2YR~3HR~10~180 8064             0.928    97       55.675   0.07     0                        
8067#1           CDA~2YR~3HR~10~180 8067             1.045    100      45.742   0.56     0                        
8068#1           CDA~2YR~3HR~10~180 8068             6.324    46       147.796  1.26     0                        
10002#1          CDA~2YR~3HR~10~180 10002            3.401    47       26.967   0.47     0                        
10008#1          CDA~2YR~3HR~10~180 10008            5.082    12       116.444  0.41     0                        
10009#1          CDA~2YR~3HR~10~180 10009            2.121    28       39.989   0.64     0                        
10010#1          CDA~2YR~3HR~10~180 10010            1.504    46       34.751   0.59     0                        
10011#1          CDA~2YR~3HR~10~180 10011            6.134    11       164.507  0.56     0                        
10012#1          CDA~2YR~3HR~10~180 10012            0.935    12       38.533   1.79     0                        
10017#1          CDA~2YR~3HR~10~180 10017            6.705    30       115.177  2.82     0                        
10018#1          CDA~2YR~3HR~10~180 10018            8.815    21       103.874  1.21     0                        
10019#1          CDA~2YR~3HR~10~180 10019            0.706    45       20.445   0.34     0                        
10020#1          CDA~2YR~3HR~10~180 10020            1.289    69       52.878   1.31     0                        
10021#1          CDA~2YR~3HR~10~180 10021            8.949    30       138.345  0.59     0                        
10022#1          CDA~2YR~3HR~10~180 10022            1.073    43       20.174   0.67     0                        
10029#1          CDA~2YR~3HR~10~180 10029            1.785    80       61.503   0.77     0                        