[TITLE]
;;Project Title/Notes

[OPTIONS]
;;Option             Value
FLOW_UNITS           MGD
INFILTRATION         GREEN_AMPT
FLOW_ROUTING         DYNWAVE
LINK_OFFSETS         ELEVATION
MIN_SLOPE            0
ALLOW_PONDING        YES
SKIP_STEADY_STATE    NO

IGNORE_SNOWMELT      YES
START_DATE           03/01/2011
START_TIME           00:00:00
REPORT_START_DATE    03/01/2011
REPORT_START_TIME    00:00:00
END_DATE             06/30/2011
END_TIME             23:55:00
SWEEP_START          01/01
SWEEP_END            12/31
DRY_DAYS             0
REPORT_STEP          00:05:00
WET_STEP             00:01:00
DRY_STEP             00:05:00
ROUTING_STEP         0:00:30 

INERTIAL_DAMPING     NONE
NORMAL_FLOW_LIMITED  BOTH
FORCE_MAIN_EQUATION  H-W
VARIABLE_STEP        0.75
LENGTHENING_STEP     5
MIN_SURFAREA         12.57
MAX_TRIALS           0
HEAD_TOLERANCE       0
SYS_FLOW_TOL         5
LAT_FLOW_TOL         5
MINIMUM_STEP         0.5
THREADS              1

[EVAPORATION]
;;Data Source    Parameters
;;-------------- ----------------
CONSTANT         0.0
DRY_ONLY         NO

[RAINGAGES]
;;Name           Format    Interval SCF      Source    
;;-------------- --------- ------ ------ ----------
RG_27            VOLUME    0.05     1.0      TIMESERIES RG_FM27         
RG_9             VOLUME    0.05     1.0      TIMESERIES RG_FM9          
RG_12            VOLUME    0.05     1.0      TIMESERIES RG_FM12         
RG_Millersburg   VOLUME    0:05     1.0      TIMESERIES RG_Millersburg  

[SUBCATCHMENTS]
;;Name           Rain Gage        Outlet           Area     %Imperv  Width    %Slope   CurbLen  SnowPack        
;;-------------- ---------------- ---------------- -------- -------- -------- -------- -------- ----------------
HWY41_FM9_279438 RG_9             279438           0        20       300      5        0                        
HWY41_FM12_125595 RG_12            125595           0        20       300      5        0                        
HWY41_FM27_84643 RG_12            84643            0        20       300      5        0                        
HWY41_FM9_13700  RG_9             13700            0        20       300      5        0                        
HWY41_FM27_13686 RG_27            13686            0        20       300      5        0                        
HWY41_FM27_13684 RG_27            13684            0        20       300      5        0                        
HWY41_FM9_13492  RG_9             13492            0        20       300      5        0                        
HWY41_FM27_13389 RG_27            13389            0        20       300      5        0                        
HWY41_FM27_10955 RG_27            10955            0        20       300      5        0                        
HWY41_FM12_10953 RG_12            10953            0        20       300      5        0                        
HWY41_FM27_10883b RG_27            10883            0        20       500      5        0                        
HWY41_FM27_10883a RG_27            10883            0        20       300      5        0                        
HWY41_FM27_10878 RG_27            10878            0        20       300      5        0                        
HWY41_FM27_10874 RG_27            10874            0        20       300      5        0                        
HWY41_FM27_10870 RG_27            10870            0        20       300      5        0                        
HWY41_FM27_10852 RG_27            10852            0        20       300      5        0                        
HWY41_FM27_10844 RG_27            10844            0        20       300      5        0                        
HWY41_FM27_10826 RG_27            10826            0        20       300      5        0                        
HWY41_FM27_10752 RG_27            10752            0        20       300      5        0                        
HWY41_FM9_10730  RG_9             10730            0        20       300      5        0                        
HWY41_FM12_9809  RG_12            9809             0        20       300      5        0                        
HWY41_FM27_88734 RG_27            88734            0        20       300      5        0                        
HWY41_FM27_13374 RG_27            13374            0        20       300      5        0                        
HWY41_FM27_13254 RG_27            13254            0        20       300      5        0                        
HWY41_FM27_10604 RG_27            10604            0        20       300      5        0                        
HWY41_FM12_11105 RG_12            11105            0        20       300      5        0                        
HWY41_FM9_10925  RG_9             10925            0        20       300      5        0                        
HWY41_UM_9722    RG_12            9722             0        20       300      5        0                        
HWY41_UM_9702    RG_12            9702             0        20       300      5        0                        
HWY41_UM_9697    RG_12            9697             0        20       300      5        0                        
MB_FM27_84326    RG_27            84326            0        30       0        0        0                        
MB_FM27_16336    RG_27            16336            0        0        0        0        0                        
MB_FM27_16321    RG_27            16321            0        15       300      1        0                        
MB_FM27_16204    RG_27            16204            0        30       300      1        0                        
MB_FM27_16196    RG_27            16196            0        0        0        0        0                        
MB_FM27_15563    RG_27            15563            0        30       0        0        0                        
MB_FM27_15398    RG_27            15398            0        30       300      1        0                        
MB_FM27_15266    RG_27            15266            0        30       300      1        0                        
MB_FM27_13221    RG_27            13221            0        30       300      1        0                        
MB_FM27_13218    RG_27            13218            0        30       300      1        0                        
MB_FM27_13228    RG_27            13228            0        30       300      1        0                        
MB_FM27_12890    RG_27            12890            0        30       300      1        0                        
MB_FM27_12847    RG_27            12847            0        30       300      1        0                        
MB_FM27_12773    RG_27            12773            0        30       300      1        0                        
MB_FM27_15574    RG_27            15574            0        30       300      1        0                        
MB_FM27_15197    RG_27            15197            0        30       300      1        0                        
MB_FM27_16189    RG_27            16189            0        30       300      1        0                        
MB_FM27_279461   RG_27            279461           0        30       300      1        0                        
HWY41_FM27_10766 RG_27            10766            0        20       300      5        0                        

[SUBAREAS]
;;Subcatchment   N-Imperv   N-Perv     S-Imperv   S-Perv     PctZero    RouteTo    PctRouted 
;;-------------- ---------- ---------- ---------- ---------- ---------- ---------- ----------
HWY41_FM9_279438 0.01       0.1        2          2          25         OUTLET    
HWY41_FM12_125595 0.01       0.1        2          2          25         OUTLET    
HWY41_FM27_84643 0.01       0.1        2          2          25         OUTLET    
HWY41_FM9_13700  0.01       0.1        2          2          25         OUTLET    
HWY41_FM27_13686 0.01       0.1        2          2          25         OUTLET    
HWY41_FM27_13684 0.01       0.1        2          2          25         OUTLET    
HWY41_FM9_13492  0.01       0.1        2          2          25         OUTLET    
HWY41_FM27_13389 0.01       0.1        2          2          25         OUTLET    
HWY41_FM27_10955 0.01       0.1        2          2          25         OUTLET    
HWY41_FM12_10953 0.01       0.1        2          2          25         OUTLET    
HWY41_FM27_10883b 0.01       0.1        2          2          25         OUTLET    
HWY41_FM27_10883a 0.01       0.1        2          2          25         OUTLET    
HWY41_FM27_10878 0.01       0.1        2          2          25         OUTLET    
HWY41_FM27_10874 0.01       0.1        2          2          25         OUTLET    
HWY41_FM27_10870 0.01       0.1        2          2          25         OUTLET    
HWY41_FM27_10852 0.01       0.1        2          2          25         OUTLET    
HWY41_FM27_10844 0.01       0.1        2          2          25         OUTLET    
HWY41_FM27_10826 0.01       0.1        2          2          25         OUTLET    
HWY41_FM27_10752 0.01       0.1        2          2          25         OUTLET    
HWY41_FM9_10730  0.01       0.1        2          2          25         OUTLET    
HWY41_FM12_9809  0.01       0.1        2          2          25         OUTLET    
HWY41_FM27_88734 0.01       0.1        2          2          25         OUTLET    
HWY41_FM27_13374 0.01       0.1        2          2          25         OUTLET    
HWY41_FM27_13254 0.01       0.1        2          2          25         OUTLET    
HWY41_FM27_10604 0.01       0.1        2          2          25         OUTLET    
HWY41_FM12_11105 0.01       0.1        2          2          25         OUTLET    
HWY41_FM9_10925  0.01       0.1        2          2          25         OUTLET    
HWY41_UM_9722    0.01       0.1        2          2          25         OUTLET    
HWY41_UM_9702    0.01       0.1        2          2          25         OUTLET    
HWY41_UM_9697    0.01       0.1        2          2          25         OUTLET    
MB_FM27_84326    0.01       0.1        2          2          25         OUTLET    
MB_FM27_16336    0.01       0.1        2          2          25         OUTLET    
MB_FM27_16321    0.01       0.1        2          2          25         OUTLET    
MB_FM27_16204    0.01       0.1        2          2          25         OUTLET    
MB_FM27_16196    0.01       0.1        2          2          25         OUTLET    
MB_FM27_15563    0.01       0.1        2          2          25         OUTLET    
MB_FM27_15398    0.01       0.1        2          2          25         OUTLET    
MB_FM27_15266    0.01       0.1        2          2          25         OUTLET    
MB_FM27_13221    0.01       0.1        2          2          25         OUTLET    
MB_FM27_13218    0.01       0.1        2          2          25         OUTLET    
MB_FM27_13228    0.01       0.1        2          2          25         OUTLET    
MB_FM27_12890    0.01       0.1        2          2          25         OUTLET    
MB_FM27_12847    0.01       0.1        2          2          25         OUTLET    
MB_FM27_12773    0.01       0.1        2          2          25         OUTLET    
MB_FM27_15574    0.01       0.1        2          2          25         OUTLET    
MB_FM27_15197    0.01       0.1        2          2          25         OUTLET    
MB_FM27_16189    0.01       0.1        2          2          25         OUTLET    
MB_FM27_279461   0.01       0.1        2          2          25         OUTLET    
HWY41_FM27_10766 0.01       0.1        2          2          25         OUTLET    

[INFILTRATION]
;;Subcatchment   Suction    Ksat       IMD       
;;-------------- ---------- ---------- ----------
HWY41_FM9_279438 3.0        0.5        4         
HWY41_FM12_125595 3.0        0.5        4         
HWY41_FM27_84643 3.0        0.5        4         
HWY41_FM9_13700  3.0        0.5        4         
HWY41_FM27_13686 3.0        0.5        4         
HWY41_FM27_13684 3.0        0.5        4         
HWY41_FM9_13492  3.0        0.5        4         
HWY41_FM27_13389 3.0        0.5        4         
HWY41_FM27_10955 3.0        0.5        4         
HWY41_FM12_10953 3.0        0.5        4         
HWY41_FM27_10883b 3.0        0.5        4         
HWY41_FM27_10883a 3.0        0.5        4         
HWY41_FM27_10878 3.0        0.5        4         
HWY41_FM27_10874 3.0        0.5        4         
HWY41_FM27_10870 3.0        0.5        4         
HWY41_FM27_10852 3.0        0.5        4         
HWY41_FM27_10844 3.0        0.5        4         
HWY41_FM27_10826 3.0        0.5        4         
HWY41_FM27_10752 3.0        0.5        4         
HWY41_FM9_10730  3.0        0.5        4         
HWY41_FM12_9809  3.0        0.5        4         
HWY41_FM27_88734 3.0        0.5        4         
HWY41_FM27_13374 3.0        0.5        4         
HWY41_FM27_13254 3.0        0.5        4         
HWY41_FM27_10604 3.0        0.5        4         
HWY41_FM12_11105 3.0        0.5        4         
HWY41_FM9_10925  3.0        0.5        4         
HWY41_UM_9722    3.0        0.5        4         
HWY41_UM_9702    3.0        0.5        4         
HWY41_UM_9697    3.0        0.5        4         
MB_FM27_84326    3.0        0.5        4         
MB_FM27_16336    3.0        0.5        4         
MB_FM27_16321    3.0        0.5        4         
MB_FM27_16204    3.0        0.5        4         
MB_FM27_16196    3.0        0.5        4         
MB_FM27_15563    3.0        0.5        4         
MB_FM27_15398    3.0        0.5        4         
MB_FM27_15266    3.0        0.5        4         
MB_FM27_13221    3.0        0.5        4         
MB_FM27_13218    3.0        0.5        4         
MB_FM27_13228    3.0        0.5        4         
MB_FM27_12890    3.0        0.5        4         
MB_FM27_12847    3.0        0.5        4         
MB_FM27_12773    3.0        0.5        4         
MB_FM27_15574    3.0        0.5        4         
MB_FM27_15197    3.0        0.5        4         
MB_FM27_16189    3.0        0.5        4         
MB_FM27_279461   3.0        0.5        4         
HWY41_FM27_10766 3.5        0.5        0.25      

[JUNCTIONS]
;;Name           Elevation  MaxDepth   InitDepth  SurDepth   Aponded   
;;-------------- ---------- ---------- ---------- ---------- ----------
279438           392.585    9.82       0          0          0         
125595           370.572    12.8       0          0          0         
10908            365.97     13.9       0          0          0         
124215           374.013    8.4        0          0          0         
88728            428.103    10.42      0          0          0         
88726            430.838    6.7        0          0          0         
90020            436.957    13.32      0          0          0         
88724            437.505    8.28       0          0          0         
84648            370.391    15.901     0          0          0         
84643            377.828    10.4       0          0          0         
84642            377.073    9.7        0          0          0         
84641            379.643    10         0          0          0         
84640            380.633    10.3       0          0          0         
88727            429.526    7.38       0          0          0         
88725            435.483    9.48       0          0          0         
37527            441.328    11.26      0          0          0         
14857            409.848    12.6       0          0          0         
14856            403.533    11.5       0          0          0         
14854            443.451    8.2        0          0          0         
14852            385.278    10.4       0          0          0         
14851            387.563    12.8       0          0          0         
13700            446.685    4.6        0          0          0         
13688            376.523    13.62      0          0          0         
;8/29/11 - Revised MH Invert Based on Interpolation (Because of Excessive Flooding of MH from Reverse Slope). Changed Invert from 377.15 to 376.40
13687            376.40     13.62      0          0          0         
13686            377.248    13.794     0          0          0         
13685            376.113    14.44      0          0          0         
13684            374.565    10.4       0          0          0         
13591            390.049    17.6       0          0          0         
13554            374.364    9.3        0          0          0         
13492            379.194    8          0          0          0         
13403            379.897    11.3       0          0          0         
13389            384.472    5.5        0          0          0         
13384            384.176    5.861      0          0          0         
88733            437.902    6.34       0          0          0         
88732            438.506    8.26       0          0          0         
13001            385.942    10.42      0          0          0         
12921            382.213    13         0          0          0         
11052            382.966    13.3       0          0          0         
11051            384.016    12.6       0          0          0         
11050            383.595    13.8       0          0          0         
11049            385.385    12.6       0          0          0         
11048            385.84     13.3       0          0          0         
11047            386.131    13.9       0          0          0         
11046            386.554    14.84      0          0          0         
10985            375.252    10.6       0          0          0         
10979            374.295    11         0          0          0         
10978            373.274    9.8        0          0          0         
10977            373.181    8.1        0          0          0         
10976            372.281    9          0          0          0         
10975            369.753    11.7       0          0          0         
10974            369.657    14         0          0          0         
10972            370.223    15.365     0          0          0         
10971            370.559    16.3       0          0          0         
10968            371.392    13.9       0          0          0         
10967            371.693    12.1       0          0          0         
10964            371.94     14.1       0          0          0         
10961            372.272    12.9       0          0          0         
10960            372.614    12.8       0          0          0         
10955            375.514    6.8        0          0          0         
10953            398.786    11.9       0          0          0         
10952            397.9      7          0          0          0         
10951            396.423    6.1        0          0          0         
10950            396.664    8          0          0          0         
10949            394.834    10.5       0          0          0         
10948            390.098    9.5        0          0          0         
10947            385.807    8.1        0          0          0         
10946            381.893    6.5        0          0          0         
10945            379.78     7          0          0          0         
10944            378.313    7.2        0          0          0         
10943            377.112    5.7        0          0          0         
10942            376.472    5.1        0          0          0         
10941            374.757    5.2        0          0          0         
10940            367.038    12.86      0          0          0         
10939            367.66     13.82      0          0          0         
10938            367.563    11.32      0          0          0         
10937            367.863    12.48      0          0          0         
10934            374.587    11.1       0          0          0         
13555            374.294    10.5       0          0          0         
10932            374.236    10.9       0          0          0         
10923            370.537    12.2       0          0          0         
10922            368.552    14         0          0          0         
10920            375.187    6.5        0          0          0         
10919            374.172    6.8        0          0          0         
10918            371.669    8.6        0          0          0         
10914            369.809    9.28       0          0          0         
10913            369.089    10.76      0          0          0         
10912            367.124    12.58      0          0          0         
10911            366.874    11.42      0          0          0         
10909            366.08     16.8       0          0          0         
10906            369.72     12.7       0          0          0         
10891            371.846    8.96       0          0          0         
10888            372.58     9.5        0          0          0         
10887            391.142    10.7       0          0          0         
10885            454.189    6.72       0          0          0         
10884            469.507    10.28      0          0          0         
10883            479.839    13.78      0          0          0         
10882            480.439    21.76      0          0          0         
10881            480.903    15.88      0          0          0         
10880            481.148    10.88      0          0          0         
10879            386.91     16.8       0          0          0         
10878            387.4      16.3       0          0          0         
10876            446.301    7.44       0          0          0         
10875            445.735    11.3       0          0          0         
10874            434.818    10.8       0          0          0         
12973            395.344    10.1       0          0          0         
10872            396.41     11.1       0          0          0         
10870            395.203    11.2       0          0          0         
10869            392.477    8.6        0          0          0         
10868            390.549    11.4       0          0          0         
10865            394.067    9.1        0          0          0         
10855            387.83     17.74      0          0          0         
10854            390.265    12.5       0          0          0         
10853            388.033    14.6       0          0          0         
10852            389.866    12.502     0          0          0         
10851            388.116    15         0          0          0         
10850            387.965    14.7       0          0          0         
10849            391.258    13.2       0          0          0         
10848            392.074    12.291     0          0          0         
10847            393.18     11.6       0          0          0         
10846            493.501    8.8        0          0          0         
10845            492.488    6.8        0          0          0         
10844            494.453    15         0          0          0         
10837            393.965    9.88       0          0          0         
10836            395.959    13.72      0          0          0         
10835            397.244    8.76       0          0          0         
10834            397.467    12.36      0          0          0         
10833            398.45     15.7       0          0          0         
10832            398.862    12.06      0          0          0         
10831            402.814    10.6       0          0          0         
10830            404.334    12.26      0          0          0         
10827            410.085    11.18      0          0          0         
10826            412.767    10.64      0          0          0         
10825            415.212    10.78      0          0          0         
10823            420.372    9.611      0          0          0         
10822            422.955    12.606     0          0          0         
10821            425.601    11.3       0          0          0         
10817            367.121    12.78      0          0          0         
10809            376.227    11.9       0          0          0         
10770            386.553    10.48      0          0          0         
10769            387.102    11.7       0          0          0         
10768            388.08     6.965      0          0          0         
10767            388.913    7.8        0          0          0         
10766            389.085    7.12       0          0          0         
10762            379.389    12.7       0          0          0         
10761            380.136    12.6       0          0          0         
10760            381.153    13.5       0          0          0         
10759            381.325    12.5       0          0          0         
10758            382.077    12.9       0          0          0         
10757            378.515    13.8       0          0          0         
10756            377.346    15.3       0          0          0         
10755            376.56     13.8       0          0          0         
10754            376.297    13.8       0          0          0         
10752            387.634    8.18       0          0          0         
10750            374.837    15.4       0          0          0         
10749            374.362    15         0          0          0         
10748            374.106    14.1       0          0          0         
10735            382.942    11.4       0          0          0         
10732            381.295    11.5       0          0          0         
10730            382.249    12.1       0          0          0         
10610            441.151    11.46      0          0          0         
10605            460.018    10.08      0          0          0         
10603            482.057    6.02       0          0          0         
10277            392.032    8.9        0          0          0         
9858             369.847    11.9       0          0          0         
9813             373.977    9.2        0          0          0         
9811             375.135    7.9        0          0          0         
9810             376.562    7.3        0          0          0         
9809             378.288    5.6        0          0          0         
9808             377.442    5.8        0          0          0         
9679             368.707    12.96      0          0          0         
9678             367.938    17.74      0          0          0         
9677             366.74     16.42      0          0          0         
13385            383.023    5.2        0          0          0         
10747            373.689    15.1       0          0          0         
14845            372.983    13.6       0          0          0         
10824            417.915    10.92      0          0          0         
10828            408.711    10.08      0          0          0         
10829            406.446    9.75       0          0          0         
88734            440.806    11.54      0          0          0         
88729            427.682    7.42       0          0          0         
88730            426.864    6.48       0          0          0         
88731            426.38     7.22       0          0          0         
13374            425.321    13.76      0          0          0         
13375            425.086    14.26      0          0          0         
90103            424.446    11.252     0          0          0         
90104            423.002    8.38       0          0          0         
90105            422.752    12.42      0          0          0         
90106            422.162    12.34      0          0          0         
90107            421.572    9.36       0          0          0         
90108            421.128    7.28       0          0          0         
90109            419.291    9.86       0          0          0         
37530            417.083    16.56      0          0          0         
90121            418.869    10.58      0          0          0         
90122            419.517    8.92       0          0          0         
90123            420.808    8.62       0          0          0         
90124            421.385    11.96      0          0          0         
90125            422.391    21.02      0          0          0         
90126            423.236    13         0          0          0         
13254            423.288    11         0          0          0         
90127            424.461    14.74      0          0          0         
90128            425.104    11.96      0          0          0         
13262            425.914    6.92       0          0          0         
90152            426.784    5.86       0          0          0         
90153            427.815    5.72       0          0          0         
90155            428.281    12.02      0          0          0         
90156            429.521    5.86       0          0          0         
37624            430.4      10.15      0          0          0         
10604            483.422    4.655      0          0          0         
10606            457.231    8.46       0          0          0         
10607            454.591    4.869      0          0          0         
10608            449.791    1.996      0          0          0         
10609            447.391    5.22       0          0          0         
10873            400.61     4.834      0          0          0         
9746             352.963    16.1       0          0          0         
13386            380.023    8.2        0          0          0         
10973            369.978    15.61      0          0          0         