[TITLE]
;;Project Title/Notes

[OPTIONS]
;;Option             Value
FLOW_UNITS           LPS
INFILTRATION         GREEN_AMPT
FLOW_ROUTING         DYNWAVE
LINK_OFFSETS         ELEVATION
MIN_SLOPE            0
ALLOW_PONDING        NO
SKIP_STEADY_STATE    NO

START_DATE           03/01/2014
START_TIME           00:00:00
REPORT_START_DATE    03/01/2014
REPORT_START_TIME    00:00:00
END_DATE             03/01/2014
END_TIME             01:00:00
SWEEP_START          01/01
SWEEP_END            12/31
DRY_DAYS             0
REPORT_STEP          00:01:00
WET_STEP             00:05:00
DRY_STEP             01:00:00
ROUTING_STEP         0:00:10 

INERTIAL_DAMPING     NONE
NORMAL_FLOW_LIMITED  BOTH
FORCE_MAIN_EQUATION  H-W
VARIABLE_STEP        0.75
LENGTHENING_STEP     1
MIN_SURFAREA         0
MAX_TRIALS           0
HEAD_TOLERANCE       0
SYS_FLOW_TOL         5
LAT_FLOW_TOL         5
MINIMUM_STEP         0.5
THREADS              1

[EVAPORATION]
;;Data Source    Parameters
;;-------------- ----------------
CONSTANT         0.0
DRY_ONLY         NO

[RAINGAGES]
;;Name           Format    Interval SCF      Source    
;;-------------- --------- ------ ------ ----------
D1               INTENSITY 0:01     1.0      TIMESERIES DAZD            

[SUBCATCHMENTS]
;;Name           Rain Gage        Outlet           Area     %Imperv  Width    %Slope   CurbLen  SnowPack        
;;-------------- ---------------- ---------------- -------- -------- -------- -------- -------- ----------------
A1               D1               S14              0.38     88       50       1        0                        
A2               D1               S16              0.37     88       50       1        0                        
A3               D1               S15              0.07     88       50       1        0                        
A4               D1               S18              0.17     88       50       1        0                        
A5               D1               S17              0.19     88       50       1        0                        
A6               D1               S23              0.23     88       50       1        0                        
A7               D1               S21              1.99     77       50       1        0                        
A8               D1               S24              0.38     77       50       1        0                        
A9               D1               S19              0.00     88       50       1        0                        
A10              D1               S27              0.58     77       50       1        0                        
A11              D1               S44              0.89     72       50       1        0                        
A12              D1               S42              1.54     72       50       1        0                        
A13              D1               S45              0.11     72       50       1        0                        
A14              D1               S40              0.02     72       50       1        0                        
A15              D1               S60              0.06     73       50       1        0                        
A16              D1               S39              2.62     72       50       1        0                        
A17              D1               S35              2.55     49       50       1        0                        
A18              D1               S29              1.19     77       50       2.5      0                        
A19              D1               S31              2.97     55       50       2.5      0                        
A20              D1               S32              2.79     55       50       2.5      0                        
A21              D1               S33              3.50     55       50       1        0                        
A22              D1               S59              1.18     72       50       1        0                        
A23              D1               S57              0.20     72       50       1        0                        
A24              D1               S58              0.24     72       50       1        0                        
A25              D1               S56              1.17     88       50       1        0                        
A26              D1               S52              0.85     46       50       1        0                        
A27              D1               S54              0.44     46       50       1        0                        
A28              D1               S51              0.61     46       50       1        0                        
A29              D1               S61              0.64     58       50       1        0                        
A30              D1               S63              0.73     88       50       1        0                        
A31              D1               S66              0.25     77       50       1        0                        
A32              D1               S73              0.38     77       50       1        0                        
A33              D1               S64              0.72     58       50       1        0                        
A34              D1               S141             0.76     52       50       1        0                        
A35              D1               S143             0.84     52       50       1        0                        
A36              D1               S134             0.46     52       50       1        0                        
A37              D1               S145             0.16     55       50       1        0                        
A38              D1               S72              0.02     77       50       1        0                        
A39              D1               S151             1.00     55       50       1        0                        
A40              D1               S71              0.36     77       50       1        0                        
A41              D1               S69              0.28     77       50       1        0                        
A42              D1               S159             0.37     88       50       1        0                        
A43              D1               S160             0.27     88       50       1        0                        
A44              D1               S161             0.14     88       50       1        0                        
A45              D1               S162             0.33     88       50       1        0                        
A46              D1               S149             0.06     55       50       1        0                        
A47              D1               S133             0.01     52       50       1        0                        
A48              D1               S132             0.07     52       50       1        0                        
A49              D1               S147             0.64     52       50       1        0                        
A50              D1               S154             0.13     77       50       1        0                        
A51              D1               S153             0.29     77       50       1        0                        
A52              D1               S50              1.21     72       50       2.5      0                        
A53              D1               S81              1.68     77       50       2.5      0                        
A54              D1               S80              1.25     77       50       2.5      0                        
A55              D1               S79              2.26     77       50       2.5      0                        
A56              D1               S78              1.05     77       50       2.5      0                        
A57              D1               S77              1.55     77       50       2.5      0                        
A58              D1               S76              1.37     77       50       2.5      0                        
A59              D1               S74              0.39     77       50       2.5      0                        
A60              D1               S82              2.01     77       50       2.5      0                        
A61              D1               S47              1.08     77       50       2.5      0                        
A62              D1               S49              0.70     72       50       2.5      0                        
A63              D1               S85              2.31     68       50       2.5      0                        
A64              D1               S102             0.15     68       50       2.5      0                        
A65              D1               S101             0.01     68       50       5.5      0                        
A66              D1               S98              0.18     68       50       5.5      0                        
A67              D1               S96              0.73     68       50       5.5      0                        
A68              D1               S100             1.51     68       50       5.5      0                        
A69              D1               S88              1.05     68       50       5.5      0                        
A70              D1               S93              0.29     68       50       5.5      0                        
A71              D1               S95              0.75     68       50       5.5      0                        
A72              D1               S120             0.70     68       50       5.5      0                        
A73              D1               S103             2.18     68       50       5.5      0                        
A74              D1               S122             0.26     68       50       5.5      0                        
A75              D1               S123             0.43     68       50       5.5      0                        
A76              D1               S92              1.71     68       50       5.5      0                        
A77              D1               S86              1.34     68       50       5.5      0                        
A78              D1               S117             2.32     68       50       5.5      0                        
A79              D1               S115             1.62     68       50       5.5      0                        
A80              D1               S113             0.67     68       50       5.5      0                        
A81              D1               S112             0.75     68       50       5.5      0                        
A82              D1               S111             0.90     68       50       5.5      0                        
A83              D1               S110             0.45     68       50       5.5      0                        
A84              D1               S109             0.29     68       50       5.5      0                        
A85              D1               S195             1.68     72       50       5.5      0                        
A86              D1               S209             1.79     40       50       5.5      0                        
A87              D1               S106             0.99     68       50       5.5      0                        
A88              D1               S104             0.82     68       50       5.5      0                        
A89              D1               S108             0.32     68       50       5.5      0                        
A90              D1               S207             1.22     68       50       5.5      0                        
A91              D1               S199             0.77     68       50       5.5      0                        
A92              D1               S196             1.02     79       50       5.5      0                        
A93              D1               S197             1.03     79       50       5.5      0                        
A94              D1               S198             0.40     68       50       5.5      0                        
A95              D1               S204             0.30     68       50       5.5      0                        
A96              D1               S200             0.06     68       50       5.5      0                        
A97              D1               S203             0.22     68       50       5.5      0                        
A98              D1               S206             0.43     68       50       5.5      0                        
A99              D1               S201             0.54     79       50       5.5      0                        
A100             D1               S202             0.76     79       50       5.5      0                        
A101             D1               S124             2.10     68       50       1        0                        
A102             D1               S136             0.74     52       50       1        0                        
A103             D1               S130             1.74     40       50       1        0                        
A104             D1               S164             0.07     88       50       1        0                        
A105             D1               S165             0.45     55       50       1        0                        
A106             D1               S167             0.07     88       50       1        0                        
A107             D1               S164             0.00     88       50       1        0                        
A108             D1               S128             0.39     40       50       1        0                        
A109             D1               S158             1.08     55       50       1        0                        
A110             D1               S155             1.22     77       50       1        0                        
A111             D1               S231             1.40     46       50       1        0                        
A112             D1               S234             0.95     46       50       1        0                        
A113             D1               S168             1.61     45       50       1        0                        
A114             D1               S126             0.49     40       50       1        0                        
A115             D1               S213             0.12     40       50       5.5      0                        
A116             D1               S212             1.42     40       50       5.5      0                        
A117             D1               S211             0.36     40       50       5.5      0                        
A118             D1               S193             0.20     68       50       5.5      0                        
A119             D1               S191             0.81     68       50       5.5      0                        
A120             D1               S187             0.82     68       50       5.5      0                        
A121             D1               S186             0.10     68       50       5.5      0                        
A122             D1               S189             0.70     68       50       5.5      0                        
A123             D1               S216             0.09     68       50       5.5      0                        
A124             D1               S308             1.51     68       50       5.5      0                        
A125             D1               S188             0.60     68       50       5.5      0                        
A126             D1               S186             0.37     68       50       5.5      0                        
A127             D1               S182             0.60     68       50       5.5      0                        
A128             D1               S181             0.25     68       50       5.5      0                        
A129             D1               S180             0.74     68       50       5.5      0                        
A130             D1               S179             0.50     68       50       5.5      0                        
A131             D1               S185             1.68     88       50       5.5      0                        
A132             D1               S302             0.52     68       50       5.5      0                        
A133             D1               S304             0.69     68       50       5.5      0                        
A134             D1               S221             1.15     64       50       5.5      0                        
A135             D1               S214             0.74     49       50       5.5      0                        
A136             D1               S218             0.66     49       50       1        0                        
A137             D1               S243             1.03     64       50       1        0                        
A138             D1               S311             1.35     68       50       5.5      0                        
A139             D1               S303             0.85     68       50       5.5      0                        
A140             D1               S298             1.42     68       50       5.5      0                        
A141             D1               S295             1.06     68       50       5.5      0                        
A142             D1               S293             0.56     68       50       5.5      0                        
A143             D1               S294             0.54     68       50       5.5      0                        
A144             D1               S297             1.02     68       50       5.5      0                        
A145             D1               S301             1.40     68       50       5.5      0                        
A146             D1               S305             0.51     68       50       5.5      0                        
A147             D1               S306             0.72     72       50       5.5      0                        
A148             D1               S307             0.06     72       50       5.5      0                        
A149             D1               S366             0.37     49       50       5.5      0                        
A150             D1               S287             0.25     49       50       5.5      0                        
A151             D1               S285             0.97     49       50       5.5      0                        
A152             D1               S266             0.27     68       50       5.5      0                        
A153             D1               S264             0.42     68       50       5.5      0                        
A154             D1               S267             1.39     68       50       5.5      0                        
A155             D1               S270             2.55     68       50       5.5      0                        
A156             D1               S271             0.43     49       50       5.5      0                        
A157             D1               S289             0.14     49       50       5.5      0                        
A158             D1               S290             0.48     49       50       5.5      0                        
A159             D1               S313             0.89     49       50       5.5      0                        
A160             D1               S291             0.38     49       50       5.5      0                        
A161             D1               S278             0.40     49       50       5.5      0                        
A162             D1               S274             0.12     49       50       5.5      0                        
A163             D1               S275             0.00     68       50       5.5      0                        
A164             D1               S276             0.53     68       50       5.5      0                        
A165             D1               S280             0.14     49       50       1        0                        
A166             D1               S277             0.06     49       50       1        0                        
A167             D1               S292             0.05     49       50       1        0                        
A168             D1               S314             0.48     49       50       5.5      0                        
A169             D1               S224             1.06     49       50       1        0                        
A170             D1               S245             0.16     64       50       1        0                        
A171             D1               S223             1.35     64       50       5.5      0                        
A172             D1               S222             0.03     64       50       1        0                        
A173             D1               S227             0.62     64       50       1        0                        
A174             D1               S248             0.63     64       50       1        0                        
A175             D1               S256             0.35     64       50       1        0                        
A176             D1               S257             0.34     64       50       1        0                        
A177             D1               S258             1.03     64       50       1        0                        
A178             D1               S255             0.36     64       50       1        0                        
A179             D1               S253             0.39     64       50       1        0                        
A180             D1               S254             1.12     64       50       1        0                        
A181             D1               S235             0.61     46       50       1        0                        
A182             D1               S238             1.29     64       50       1        0                        
A183             D1               S171             0.78     46       50       1        0                        
A184             D1               S156             1.60     56       50       1        0                        
A185             D1               S173             2.61     46       50       1        0                        
A186             D1               S258             0.39     64       50       1        0                        
A187             D1               S261             0.20     64       50       1        0                        
A188             D1               S259             0.24     64       50       1        0                        
A189             D1               S263             0.13     64       50       1        0                        
A190             D1               S262             0.12     64       50       1        0                        
A191             D1               S260             0.29     64       50       1        0                        
A192             D1               S250             0.29     64       50       1        0                        
A193             D1               S247             0.43     64       50       1        0                        
A194             D1               S249             0.09     64       50       1        0                        
A195             D1               S230             0.06     64       50       1        0                        
A196             D1               S251             0.22     64       50       1        0                        
A197             D1               S177             1.38     64       50       1        0                        
A198             D1               S322             0.67     64       50       1        0                        
A199             D1               S320             0.22     64       50       1        0                        
A200             D1               S318             0.35     64       50       1        0                        
A201             D1               S315             0.73     64       50       1        0                        
A202             D1               S226             0.09     64       50       1        0                        
A203             D1               S316             0.43     64       50       1        0                        
A204             D1               S319             1.12     64       50       1        0                        
A205             D1               S323             1.26     55       50       1.5      0                        
A206             D1               S325             1.24     55       50       1.5      0                        
A207             D1               S343             3.33     46       50       1.5      0                        
A208             D1               S342             1.34     46       50       1.5      0                        
A209             D1               S337             1.58     68       50       5.5      0                        
A210             D1               S334             1.33     68       50       5.5      0                        
A211             D1               S332             0.79     68       50       5.5      0                        
A212             D1               S335             0.29     68       50       5.5      0                        
A213             D1               S331             1.77     68       50       5.5      0                        
A214             D1               S329             1.14     68       50       5.5      0                        
A215             D1               S326             1.92     68       50       5.5      0                        
A216             D1               S345             1.43     46       50       1.5      0                        
A217             D1               S349             4.95     46       50       1.5      0                        
A218             D1               S347             1.54     46       50       1.5      0                        
A219             D1               S351             4.20     46       50       1.5      0                        
A220             D1               S357             7.62     46       50       1.5      0                        
A221             D1               S360             3.33     46       50       1.5      0                        
A222             D1               S362             2.92     100      50       1.5      0                        
A223             D1               S184             1.81     88       50       5.5      0                        
A224             D1               S183             0.97     88       50       5.5      0                        
A225             D1               S178             0.77     68       500      5.5      0                        

[SUBAREAS]
;;Subcatchment   N-Imperv   N-Perv     S-Imperv   S-Perv     PctZero    RouteTo    PctRouted 
;;-------------- ---------- ---------- ---------- ---------- ---------- ---------- ----------
A1               0.01       0.1        0.05       0.05       25         OUTLET    
A2               0.01       0.1        0.05       0.05       25         OUTLET    
A3               0.01       0.1        0.05       0.05       25         OUTLET    
A4               0.01       0.1        0.05       0.05       25         OUTLET    
A5               0.01       0.1        0.05       0.05       25         OUTLET    
A6               0.01       0.1        0.05       0.05       25         OUTLET    
A7               0.01       0.1        0.05       0.05       25         OUTLET    
A8               0.01       0.1        0.05       0.05       25         OUTLET    
A9               0.01       0.1        0.05       0.05       25         OUTLET    
A10              0.01       0.1        0.05       0.05       25         OUTLET    
A11              0.01       0.1        0.05       0.05       25         OUTLET    
A12              0.01       0.1        0.05       0.05       25         OUTLET    
A13              0.01       0.1        0.05       0.05       25         OUTLET    
A14              0.01       0.1        0.05       0.05       25         OUTLET    
A15              0.01       0.1        0.05       0.05       25         OUTLET    
A16              0.01       0.1        0.05       0.05       25         OUTLET    
A17              0.01       0.1        0.05       0.05       25         OUTLET    
A18              0.01       0.1        0.05       0.05       25         OUTLET    
A19              0.01       0.1        0.05       0.05       25         OUTLET    
A20              0.01       0.1        0.05       0.05       25         OUTLET    
A21              0.01       0.1        0.05       0.05       25         OUTLET    
A22              0.01       0.1        0.05       0.05       25         OUTLET    
A23              0.01       0.1        0.05       0.05       25         OUTLET    
A24              0.01       0.1        0.05       0.05       25         OUTLET    
A25              0.01       0.1        0.05       0.05       25         OUTLET    
A26              0.01       0.1        0.05       0.05       25         OUTLET    
A27              0.01       0.1        0.05       0.05       25         OUTLET    
A28              0.01       0.1        0.05       0.05       25         OUTLET    
A29              0.01       0.1        0.05       0.05       25         OUTLET    
A30              0.01       0.1        0.05       0.05       25         OUTLET    
A31              0.01       0.1        0.05       0.05       25         OUTLET    
A32              0.01       0.1        0.05       0.05       25         OUTLET    
A33              0.01       0.1        0.05       0.05       25         OUTLET    
A34              0.01       0.1        0.05       0.05       25         OUTLET    