[TITLE]

[OPTIONS]
FLOW_UNITS          	CMS
INFILTRATION        	HORTON
FLOW_ROUTING        	DYNWAVE
START_DATE          	01/01/2013
START_TIME          	00:00:00
REPORT_START_DATE   	01/01/2013
REPORT_START_TIME   	00:00:00
END_DATE            	11/12/2013
END_TIME            	00:00:00
SWEEP_START         	1/1
SWEEP_END           	12/31
DRY_DAYS            	5
REPORT_STEP         	24:00:00
WET_STEP            	0:01:00
DRY_STEP            	1:00:00
ROUTING_STEP        	0:01:00 
ALLOW_PONDING       	NO
INERTIAL_DAMPING    	PARTIAL
VARIABLE_STEP       	0.75
LENGTHENING_STEP    	0
MIN_SURFAREA        	100
NORMAL_FLOW_LIMITED 	BOTH
SKIP_STEADY_STATE   	NO
FORCE_MAIN_EQUATION 	H-W
LINK_OFFSETS        	ELEVATION
MIN_SLOPE           	0

[EVAPORATION]
;;Type      	Parameters
;;----------	----------
CONSTANT    	0
DRY_ONLY     NO

[RAINGAGES]
;;              	Rain     	Time  	Snow  	Data      
;;Name          	Type     	Intrvl	Catch 	Source    
;;--------------	---------	------	------	----------
AHD_RF          	INTENSITY	24:00:00	1     	TIMESERIES	RF              

[SUBCATCHMENTS]
;;              	                	                	Total   	Pcnt.   	        	Pcnt.   	Curb    	Snow    
;;Name          	Raingage        	Outlet          	Area    	Imperv  	Width   	Slope   	Length  	Pack    
;;--------------	----------------	----------------	--------	--------	--------	--------	--------	--------
Thaltej         	AHD_RF          	Thaltej_Lake    	453.59  	66.51   	2000    	0.5     	0       	                
Bodakdev        	AHD_RF          	Bodakdev_Lake   	658.09  	58.47   	1800    	0.5     	0       	                
Memnagar        	AHD_RF          	Memnagar_Lake   	134.6   	88.78   	1500    	0.5     	0       	                
Vastrapur       	AHD_RF          	Vastrapur_Lake  	115.27  	84.37   	1200    	0.5     	0       	                
Prahladnagar    	AHD_RF          	Prahladnagar_Lake	802.81  	79.63   	2000    	0.5     	0       	                
Makarba         	AHD_RF          	Sarkhej_Lake    	174.88  	61.75   	800     	0.5     	0       	                

[SUBAREAS]
;;Subcatchment  	N-Imperv  	N-Perv    	S-Imperv  	S-Perv    	PctZero   	RouteTo   	PctRouted 
;;--------------	----------	----------	----------	----------	----------	----------	----------
Thaltej         	0.013     	0.05      	0.05      	0.05      	25        	OUTLET    
Bodakdev        	0.013     	0.05      	0.05      	0.05      	25        	OUTLET    
Memnagar        	0.013     	0.05      	0.05      	0.05      	25        	OUTLET    
Vastrapur       	0.013     	0.05      	0.05      	0.05      	25        	OUTLET    
Prahladnagar    	0.013     	0.05      	0.05      	0.05      	25        	OUTLET    
Makarba         	0.013     	0.05      	0.05      	0.05      	25        	OUTLET    

[INFILTRATION]
;;Subcatchment  	MaxRate   	MinRate   	Decay     	DryTime   	MaxInfil  
;;--------------	----------	----------	----------	----------	----------
Thaltej         	3         	0.5       	4         	7         	0         
Bodakdev        	3         	0.5       	4         	7         	0         
Memnagar        	3         	0.5       	4         	7         	0         
Vastrapur       	3         	0.5       	4         	7         	0         
Prahladnagar    	3         	0.5       	4         	7         	0         
Makarba         	3         	0.5       	4         	7         	0         

[OUTFALLS]
;;              	Invert    	Outfall   	Stage/Table     	Tide
;;Name          	Elev.     	Type      	Time Series     	Gate
;;--------------	----------	----------	----------------	----
26              	35.535    	FREE      	                	NO

[STORAGE]
;;              	Invert  	Max.    	Init.   	Storage   	Curve   	        	        	Ponded  	Evap.   
;;Name          	Elev.   	Depth   	Depth   	Curve     	Params  	        	        	Area    	Frac.   	Infiltration Parameters
;;--------------	--------	--------	--------	----------	--------	--------	--------	--------	--------	-----------------------
Thaltej_Lake    	46.6    	4       	0       	FUNCTIONAL	1000    	0       	0       	0       	1       
Memnagar_Lake   	46.36   	3       	0       	FUNCTIONAL	1000    	0       	0       	0       	1       
Vastrapur_Lake  	45.989  	4       	0       	FUNCTIONAL	1000    	0       	0       	0       	1       
Bodakdev_Lake   	44.657  	1       	0       	FUNCTIONAL	1000    	0       	0       	0       	1       
Prahladnagar_Lake	38.91   	3       	0       	TABULAR   	aa              		        	0       	1       
Sarkhej_Lake    	37.43   	2.5     	0       	FUNCTIONAL	1000    	0       	0       	0       	1       

[CONDUITS]
;;              	Inlet           	Outlet          	          	Manning   	Inlet     	Outlet    	Init.     	Max.      
;;Name          	Node            	Node            	Length    	N         	Offset    	Offset    	Flow      	Flow      
;;--------------	----------------	----------------	----------	----------	----------	----------	----------	----------
48              	Thaltej_Lake    	Memnagar_Lake   	400       	0.01      	46.6      	46.36     	0         	0         
49              	Memnagar_Lake   	Vastrapur_Lake  	400       	0.01      	46.36     	46.36     	0         	0         
50              	Vastrapur_Lake  	Bodakdev_Lake   	400       	0.01      	45.98     	45.98     	0         	0         
51              	Bodakdev_Lake   	Prahladnagar_Lake	400       	0.01      	44.657    	44.657    	0         	0         
52              	Prahladnagar_Lake	Sarkhej_Lake    	400       	0.01      	38.91     	38.91     	0         	0         
53              	Sarkhej_Lake    	26              	400       	0.01      	37.43     	36.25     	0         	0         

[XSECTIONS]
;;Link          	Shape       	Geom1           	Geom2     	Geom3     	Geom4     	Barrels   
;;--------------	------------	----------------	----------	----------	----------	----------
48              	CIRCULAR    	1.2             	0         	0         	0         	1         	          
49              	CIRCULAR    	1.2             	0         	0         	0         	1         	          
50              	CIRCULAR    	1.8             	0         	0         	0         	1         	          
51              	CIRCULAR    	1.8             	0         	0         	0         	1         	          
52              	CIRCULAR    	2               	0         	0         	0         	1         	          
53              	CIRCULAR    	2               	0         	0         	0         	1         	          

[LOSSES]
;;Link          	Inlet     	Outlet    	Average   	Flap Gate 
;;--------------	----------	----------	----------	----------

[POLLUTANTS]
;;              	Mass  	Rain      	GW        	I&I       	Decay     	Snow 	Co-Pollut.      	Co-Pollut.	DWF       
;;Name          	Units 	Concen.   	Concen.   	Concen.   	Coeff.    	Only 	Name            	Fraction  	Concen.   
;;--------------	------	----------	----------	----------	----------	-----	----------------	----------	----------
AmmonicalNitrogenNH3-N	MG/L  	1         	0         	0         	0         	NO   	*               	0         	0         
BiochemicalOxygenDemand(BOD)	MG/L  	1         	0         	0         	0         	NO   	*               	0         	0         
CalciumHardness 	MG/L  	1         	0         	0         	0         	NO   	*               	0         	0         
ChemicaOxygenDemandCOD	MG/L  	1         	0         	0         	0         	NO   	*               	0         	0         
ChorideasCL     	MG/L  	1         	0         	0         	0         	NO   	*               	0         	0         
Colour          	uG/L  	1         	0         	0         	0         	NO   	*               	0         	0         
Conductivity    	MG/L  	1         	0         	0         	0         	NO   	*               	0         	0         
DissolvedPhosporus	mg/l  	1         	0         	0         	0         	NO   	*               	0         	0         
FecalColiform   	UG/L  	1         	0         	0         	0         	NO   	*               	0         	0         
FlavourThresholdTest	uG/L  	1         	0         	0         	0         	NO   	*               	0         	0         
MagnesiumHardness	MG/L  	1         	0         	0         	0         	NO   	*               	0         	0         
Odor            	uG/L  	1         	0         	0         	0         	NO   	*               	0         	0         
Oil&Grease      	MG/L  	1         	0         	0         	0         	NO   	*               	0         	0         
pH              	MG/L  	1         	0         	0         	0         	NO   	*               	0         	0         
Sulfide         	MG/L  	1         	0         	0         	0         	NO   	*               	0         	0         
TotalColiform   	#/L   	1         	0         	0         	0         	NO   	*               	0         	0         
TotalDissolvedSolids	MG/L  	1         	0         	0         	0         	NO   	*               	0         	0         
TotalHardness   	MG/L  	1         	0         	0         	0         	NO   	*               	0         	0         
TotalNitrogen   	mg/l  	1         	0         	0         	0         	NO   	*               	0         	0         
TotalPhosporus  	MG/L  	1         	0         	0         	0         	NO   	*               	0         	0         
TotalSolids     	MG/L  	1         	0         	0         	0         	NO   	*               	0         	0         
TotalSuspendedSolids(TSS)	MG/L  	1         	0         	0         	0         	NO   	*               	0         	0         
Turbidity       	MG/L  	1         	0         	0         	0         	NO   	*               	0         	0         

[LANDUSES]
;;              	Cleaning  	Fraction  	Last      
;;Name          	Interval  	Available 	Cleaned   
;;--------------	----------	----------	----------
Residential     	1         	0         	0         
Commercial      	1         	0         	0         
MixedUse        	1         	0         	0         

[COVERAGES]
;;Subcatchment  	Land Use        	Percent   
;;--------------	----------------	----------
Thaltej         	Residential     	39.23     
Thaltej         	Commercial      	3.23      
Thaltej         	MixedUse        	9.35      
Bodakdev        	Residential     	29.29     
Bodakdev        	Commercial      	6.88      
Bodakdev        	MixedUse        	5.67      
Memnagar        	Residential     	53.77     
Memnagar        	Commercial      	1.99      
Memnagar        	MixedUse        	18.41     
Vastrapur       	Residential     	49.85     
Vastrapur       	Commercial      	5.51      
Vastrapur       	MixedUse        	13.2      
Prahladnagar    	Residential     	42.92     
Prahladnagar    	Commercial      	4.96      
Prahladnagar    	MixedUse        	15.7      
Makarba         	Residential     	26.66     
Makarba         	Commercial      	1.61      
Makarba         	MixedUse        	8.7       

[LOADINGS]
;;Subcatchment  	Pollutant       	Loading   
;;--------------	----------------	----------

[BUILDUP]
;;LandUse       	Pollutant       	Function  	Coeff1    	Coeff2    	Coeff3    	Normalizer
;;--------------	----------------	----------	----------	----------	----------	----------
Residential     	Colour          	NONE      	0.15      	0.5       	0         	AREA      
Residential     	Odor            	NONE      	0.15      	0.5       	0         	AREA      
Residential     	FlavourThresholdTest	NONE      	0.15      	0.5       	0         	AREA      
Residential     	Conductivity    	NONE      	0.15      	0.5       	0         	AREA      
Residential     	TotalSolids     	NONE      	0.15      	0.5       	0         	AREA      
Residential     	TotalDissolvedSolids	NONE      	0.15      	0.5       	0         	AREA      
Residential     	TotalSuspendedSolids(TSS)	NONE      	0.15      	0.5       	0         	AREA      
Residential     	ChorideasCL     	NONE      	0.15      	0.5       	0         	AREA      
Residential     	Oil&Grease      	NONE      	0.15      	0.5       	0         	AREA      
Residential     	                	          	          	          	          	          
Residential     	TotalHardness   	NONE      	0.15      	0.5       	0         	AREA      
Residential     	CalciumHardness 	NONE      	0.15      	0.5       	0         	AREA      
Residential     	MagnesiumHardness	NONE      	0.15      	0.5       	0         	AREA      
Residential     	Sulfide         	NONE      	0.15      	0.5       	0         	AREA      
Residential     	pH              	NONE      	0.15      	0.5       	0         	AREA      
Residential     	AmmonicalNitrogenNH3-N	NONE      	0.15      	0.5       	0         	AREA      
Residential     	ChemicaOxygenDemandCOD	NONE      	0.15      	0.5       	0         	AREA      
Residential     	BiochemicalOxygenDemand(BOD)	NONE      	0.15      	0.5       	0         	AREA      
Residential     	TotalColiform   	NONE      	0.15      	0.5       	0         	AREA      
Residential     	FecalColiform   	NONE      	0.15      	0.5       	0         	AREA      
Residential     	TotalPhosporus  	NONE      	0.15      	0.5       	0         	AREA      
Residential     	DissolvedPhosporus	NONE      	0.15      	0.5       	0         	AREA      
Residential     	TotalNitrogen   	NONE      	0.15      	0.5       	0         	AREA      
Commercial      	Colour          	NONE      	0.15      	0.5       	0         	AREA      
Commercial      	Odor            	NONE      	0.15      	0.5       	0         	AREA      
Commercial      	FlavourThresholdTest	NONE      	0.15      	0.5       	0         	AREA      
Commercial      	Conductivity    	NONE      	0.15      	0.5       	0         	AREA      
Commercial      	TotalSolids     	NONE      	0.15      	0.5       	0         	AREA      
Commercial      	TotalDissolvedSolids	NONE      	0.15      	0.5       	0         	AREA      
Commercial      	TotalSuspendedSolids(TSS)	NONE      	0.15      	0.5       	0         	AREA      
Commercial      	ChorideasCL     	NONE      	0.15      	0.5       	0         	AREA      
Commercial      	Oil&Grease      	NONE      	0.15      	0.5       	0         	AREA      
Commercial      	                	          	          	          	          	          
Commercial      	TotalHardness   	NONE      	0.15      	0.5       	0         	AREA      
Commercial      	CalciumHardness 	NONE      	0.15      	0.5       	0         	AREA      
Commercial      	MagnesiumHardness	NONE      	0.15      	0.5       	0         	AREA      
Commercial      	Sulfide         	NONE      	0.15      	0.5       	0         	AREA      
Commercial      	pH              	NONE      	0.15      	0.5       	0         	AREA      
Commercial      	AmmonicalNitrogenNH3-N	NONE      	0.15      	0.5       	0         	AREA      
Commercial      	ChemicaOxygenDemandCOD	NONE      	0.15      	0.5       	0         	AREA      
Commercial      	BiochemicalOxygenDemand(BOD)	NONE      	0.15      	0.5       	0         	AREA      
Commercial      	TotalColiform   	NONE      	0.15      	0.5       	0         	AREA      
Commercial      	FecalColiform   	NONE      	0.15      	0.5       	0         	AREA      
Commercial      	TotalPhosporus  	NONE      	0.15      	0.5       	0         	AREA      
Commercial      	DissolvedPhosporus	NONE      	0.15      	0.5       	0         	AREA      
Commercial      	TotalNitrogen   	NONE      	0.15      	0.5       	0         	AREA      
MixedUse        	Colour          	NONE      	0.15      	0.5       	0         	AREA      
MixedUse        	Odor            	NONE      	0.15      	0.5       	0         	AREA      
MixedUse        	FlavourThresholdTest	NONE      	0.15      	0.5       	0         	AREA      
MixedUse        	Conductivity    	NONE      	0.15      	0.5       	0         	AREA      
MixedUse        	TotalSolids     	NONE      	0.15      	0.5       	0         	AREA      
MixedUse        	TotalDissolvedSolids	NONE      	0.15      	0.5       	0         	AREA      
MixedUse        	TotalSuspendedSolids(TSS)	NONE      	0.15      	0.5       	0         	AREA      
MixedUse        	ChorideasCL     	NONE      	0.15      	0.5       	0         	AREA      
MixedUse        	Oil&Grease      	NONE      	0.15      	0.5       	0         	AREA      
MixedUse        	                	          	          	          	          	          
MixedUse        	TotalHardness   	NONE      	0.15      	0.5       	0         	AREA      
MixedUse        	CalciumHardness 	NONE      	0.15      	0.5       	0         	AREA      
MixedUse        	MagnesiumHardness	NONE      	0.15      	0.5       	0         	AREA      
MixedUse        	Sulfide         	NONE      	0.15      	0.5       	0         	AREA      
MixedUse        	pH              	NONE      	0.15      	0.5       	0         	AREA      
MixedUse        	AmmonicalNitrogenNH3-N	NONE      	0.15      	0.5       	0         	AREA      
MixedUse        	ChemicaOxygenDemandCOD	NONE      	0.15      	0.5       	0         	AREA      
MixedUse        	BiochemicalOxygenDemand(BOD)	NONE      	0.15      	0.5       	0         	AREA      
MixedUse        	TotalColiform   	NONE      	0.15      	0.5       	0         	AREA      
MixedUse        	FecalColiform   	NONE      	0.15      	0.5       	0         	AREA      
MixedUse        	TotalPhosporus  	NONE      	0.15      	0.5       	0         	AREA      
MixedUse        	DissolvedPhosporus	NONE      	0.15      	0.5       	0         	AREA      
MixedUse        	TotalNitrogen   	NONE      	0.15      	0.5       	0         	AREA      

[WASHOFF]
;;              	                	          	          	          	Cleaning  	BMP       
;;Land Use      	Pollutant       	Function  	Coeff1    	Coeff2    	Effic.    	Effic.    
;;--------------	----------------	----------	----------	----------	----------	----------
Residential     	Colour          	EMC       	1         	0         	0         	0         
Residential     	Odor            	EMC       	1         	0         	0         	0         
Residential     	FlavourThresholdTest	EMC       	1         	0         	0         	0         
Residential     	Conductivity    	EMC       	1         	0         	0         	0         
Residential     	TotalSolids     	EMC       	1         	0         	0         	0         
Residential     	TotalDissolvedSolids	EMC       	1         	0         	0         	0         
Residential     	TotalSuspendedSolids(TSS)	EMC       	1         	0         	0         	0         
Residential     	ChorideasCL     	EMC       	1         	0         	0         	0         
Residential     	Oil&Grease      	EMC       	1         	0         	0         	0         
Residential     	                	          	          	          	          	          
Residential     	TotalHardness   	EMC       	1         	0         	0         	0         
Residential     	CalciumHardness 	EMC       	1         	0         	0         	0         
Residential     	MagnesiumHardness	EMC       	1         	0         	0         	0         
Residential     	Sulfide         	EMC       	1         	0         	0         	0         
Residential     	pH              	EMC       	1         	0         	0         	0         
Residential     	AmmonicalNitrogenNH3-N	EMC       	1         	0         	0         	0         
Residential     	ChemicaOxygenDemandCOD	EMC       	1         	0         	0         	0         
Residential     	BiochemicalOxygenDemand(BOD)	EMC       	1         	0         	0         	0         
Residential     	TotalColiform   	EMC       	1         	0         	0         	0         
Residential     	FecalColiform   	EMC       	1         	0         	0         	0         
Residential     	TotalPhosporus  	EMC       	1         	0         	0         	0         
Residential     	DissolvedPhosporus	EMC       	1         	0         	0         	0         
Residential     	TotalNitrogen   	EMC       	1         	0         	0         	0         
Commercial      	Colour          	EMC       	1         	0         	0         	0         
Commercial      	Odor            	EMC       	1         	0         	0         	0         
Commercial      	FlavourThresholdTest	EMC       	1         	0         	0         	0         
Commercial      	Conductivity    	EMC       	1         	0         	0         	0         
Commercial      	TotalSolids     	EMC       	1         	0         	0         	0         
Commercial      	TotalDissolvedSolids	EMC       	1         	0         	0         	0         
Commercial      	TotalSuspendedSolids(TSS)	EMC       	1         	0         	0         	0         
Commercial      	ChorideasCL     	EMC       	1         	0         	0         	0         
Commercial      	Oil&Grease      	EMC       	1         	0         	0         	0         
Commercial      	                	          	          	          	          	          
Commercial      	TotalHardness   	EMC       	1         	0         	0         	0         
Commercial      	CalciumHardness 	EMC       	1         	0         	0         	0         
Commercial      	MagnesiumHardness	EMC       	1         	0         	0         	0         
Commercial      	Sulfide         	EMC       	1         	0         	0         	0         
Commercial      	pH              	EMC       	1         	0         	0         	0         
Commercial      	AmmonicalNitrogenNH3-N	EMC       	1         	0         	0         	0         
Commercial      	ChemicaOxygenDemandCOD	EMC       	1         	0         	0         	0         
Commercial      	BiochemicalOxygenDemand(BOD)	EMC       	1         	0         	0         	0         
Commercial      	TotalColiform   	EMC       	1         	0         	0         	0         
Commercial      	FecalColiform   	EMC       	1         	0         	0         	0         
Commercial      	TotalPhosporus  	EMC       	1         	0         	0         	0         
Commercial      	DissolvedPhosporus	EMC       	1         	0         	0         	0         
Commercial      	TotalNitrogen   	EMC       	1         	0         	0         	0         
MixedUse        	Colour          	EMC       	1         	0         	0         	0         
MixedUse        	Odor            	EMC       	1         	0         	0         	0         
MixedUse        	FlavourThresholdTest	EMC       	1         	0         	0         	0         
MixedUse        	Conductivity    	EMC       	1         	0         	0         	0         
MixedUse        	TotalSolids     	EMC       	1         	0         	0         	0         
MixedUse        	TotalDissolvedSolids	EMC       	1         	0         	0         	0         
MixedUse        	TotalSuspendedSolids(TSS)	EMC       	1         	0         	0         	0         
MixedUse        	ChorideasCL     	EMC       	1         	0         	0         	0         
MixedUse        	Oil&Grease      	EMC       	1         	0         	0         	0         
MixedUse        	                	          	          	          	          	          
MixedUse        	TotalHardness   	EMC       	1         	0         	0         	0         
MixedUse        	CalciumHardness 	EMC       	1         	0         	0         	0         
MixedUse        	MagnesiumHardness	EMC       	1         	0         	0         	0         
MixedUse        	Sulfide         	EMC       	1         	0         	0         	0         
MixedUse        	pH              	EMC       	1         	0         	0         	0         
MixedUse        	AmmonicalNitrogenNH3-N	EMC       	1         	0         	0         	0         
MixedUse        	ChemicaOxygenDemandCOD	EMC       	1         	0         	0         	0         
MixedUse        	BiochemicalOxygenDemand(BOD)	EMC       	1         	0         	0         	0         
MixedUse        	TotalColiform   	EMC       	1         	0         	0         	0         
MixedUse        	FecalColiform   	EMC       	1         	0         	0         	0         
MixedUse        	TotalPhosporus  	EMC       	1         	0         	0         	0         
MixedUse        	DissolvedPhosporus	EMC       	1         	0         	0         	0         
MixedUse        	TotalNitrogen   	EMC       	1         	0         	0         	0         

[CURVES]
;;Name          	Type      	X-Value   	Y-Value   
;;--------------	----------	----------	----------
aa              	Storage   	38.91     	18568     
aa              	          	45        	22803     

[TIMESERIES]
;;Name          	Date      	Time      	Value     
;;--------------	----------	----------	----------
AHMD_2013       	1/1/2013  	0         	0         
AHMD_2013       	1/2/2013  	24        	0         
AHMD_2013       	1/3/2013  	48        	0         
AHMD_2013       	1/4/2013  	72        	0         
AHMD_2013       	1/5/2013  	96        	0         
AHMD_2013       	1/6/2013  	120       	0         
AHMD_2013       	1/7/2013  	144       	0         
AHMD_2013       	1/8/2013  	168       	0         
AHMD_2013       	1/9/2013  	192       	0         
AHMD_2013       	1/10/2013 	216       	0         
AHMD_2013       	1/11/2013 	240       	0         
AHMD_2013       	1/12/2013 	264       	0         
AHMD_2013       	1/13/2013 	288       	0         
AHMD_2013       	1/14/2013 	312       	0         
AHMD_2013       	1/15/2013 	336       	0         
AHMD_2013       	1/16/2013 	360       	0         
AHMD_2013       	1/17/2013 	384       	0         
AHMD_2013       	1/18/2013 	408       	0         
AHMD_2013       	1/19/2013 	432       	0         
AHMD_2013       	1/20/2013 	456       	0         
AHMD_2013       	1/21/2013 	480       	0         
AHMD_2013       	1/22/2013 	504       	0         
AHMD_2013       	1/23/2013 	528       	0         
AHMD_2013       	1/24/2013 	552       	0         
AHMD_2013       	1/25/2013 	576       	0         
AHMD_2013       	1/26/2013 	600       	0         
AHMD_2013       	1/27/2013 	624       	0         
AHMD_2013       	1/28/2013 	648       	0         
AHMD_2013       	1/29/2013 	672       	0         
AHMD_2013       	1/30/2013 	696       	0         
AHMD_2013       	1/31/2013 	720       	0         
AHMD_2013       	2/1/2013  	744       	0         
AHMD_2013       	2/2/2013  	768       	0         
AHMD_2013       	2/3/2013  	792       	0         
AHMD_2013       	2/4/2013  	816       	0         
AHMD_2013       	2/5/2013  	840       	0         
AHMD_2013       	2/6/2013  	864       	0         
AHMD_2013       	2/7/2013  	888       	0         
AHMD_2013       	2/8/2013  	912       	0         
AHMD_2013       	2/9/2013  	936       	0         
AHMD_2013       	2/10/2013 	960       	0         
AHMD_2013       	2/11/2013 	984       	0         
AHMD_2013       	2/12/2013 	1008      	0         
AHMD_2013       	2/13/2013 	1032      	0         
AHMD_2013       	2/14/2013 	1056      	0         
AHMD_2013       	2/15/2013 	1080      	0         
AHMD_2013       	2/16/2013 	1104      	0         
AHMD_2013       	2/17/2013 	1128      	0         
AHMD_2013       	2/18/2013 	1152      	0         
AHMD_2013       	2/19/2013 	1176      	0         
AHMD_2013       	2/20/2013 	1200      	0         
AHMD_2013       	2/21/2013 	1224      	0         
AHMD_2013       	2/22/2013 	1248      	0         
AHMD_2013       	2/23/2013 	1272      	0         
AHMD_2013       	2/24/2013 	1296      	0         
AHMD_2013       	2/25/2013 	1320      	0         
AHMD_2013       	2/26/2013 	1344      	0         
AHMD_2013       	2/27/2013 	1368      	0         
AHMD_2013       	2/28/2013 	1392      	0         
AHMD_2013       	3/1/2013  	1416      	0         
AHMD_2013       	3/2/2013  	1440      	0         
AHMD_2013       	3/3/2013  	1464      	0         
AHMD_2013       	3/4/2013  	1488      	0         
AHMD_2013       	3/5/2013  	1512      	0         
AHMD_2013       	3/6/2013  	1536      	0         
AHMD_2013       	3/7/2013  	1560      	0         
AHMD_2013       	3/8/2013  	1584      	0         
AHMD_2013       	3/9/2013  	1608      	0         
AHMD_2013       	3/10/2013 	1632      	0         
AHMD_2013       	3/11/2013 	1656      	0         
AHMD_2013       	3/12/2013 	1680      	0         
AHMD_2013       	3/13/2013 	1704      	0         
AHMD_2013       	3/14/2013 	1728      	0         
AHMD_2013       	3/15/2013 	1752      	0         
AHMD_2013       	3/16/2013 	1776      	0         
AHMD_2013       	3/17/2013 	1800      	0         
AHMD_2013       	3/18/2013 	1824      	0         
AHMD_2013       	3/19/2013 	1848      	0         
AHMD_2013       	3/20/2013 	1872      	0         
AHMD_2013       	3/21/2013 	1896      	0         
AHMD_2013       	3/22/2013 	1920      	0         
AHMD_2013       	3/23/2013 	1944      	0         
AHMD_2013       	3/24/2013 	1968      	0         
AHMD_2013       	3/25/2013 	1992      	0         
AHMD_2013       	3/26/2013 	2016      	0         
AHMD_2013       	3/27/2013 	2040      	0         
AHMD_2013       	3/28/2013 	2064      	0         
AHMD_2013       	3/29/2013 	2088      	0         
AHMD_2013       	3/30/2013 	2112      	0         
AHMD_2013       	3/31/2013 	2136      	0         
AHMD_2013       	4/1/2013  	2160      	0         
AHMD_2013       	4/2/2013  	2184      	0         
AHMD_2013       	4/3/2013  	2208      	0         
AHMD_2013       	4/4/2013  	2232      	0         
AHMD_2013       	4/5/2013  	2256      	0         
AHMD_2013       	4/6/2013  	2280      	0         
AHMD_2013       	4/7/2013  	2304      	0         
AHMD_2013       	4/8/2013  	2328      	0         
AHMD_2013       	4/9/2013  	2352      	0         
AHMD_2013       	4/10/2013 	2376      	0.1       
AHMD_2013       	4/11/2013 	2400      	0         
AHMD_2013       	4/12/2013 	2424      	0         
AHMD_2013       	4/13/2013 	2448      	0         
AHMD_2013       	4/14/2013 	2472      	0         
AHMD_2013       	4/15/2013 	2496      	0         
AHMD_2013       	4/16/2013 	2520      	0         
AHMD_2013       	4/17/2013 	2544      	0         
AHMD_2013       	4/18/2013 	2568      	0         
AHMD_2013       	4/19/2013 	2592      	5         
AHMD_2013       	4/20/2013 	2616      	0.1       
AHMD_2013       	4/21/2013 	2640      	0.1       
AHMD_2013       	4/22/2013 	2664      	0         
AHMD_2013       	4/23/2013 	2688      	0.4       
AHMD_2013       	4/24/2013 	2712      	0         