[TITLE]
;;Project Title/Notes
Runoff template file
Contains ALL SUBCATCHMENTS
*============================================================================
*    SWMM 4.4 RUNOFF INPUT DATA FILE TEMPLATE (ALL DATA LINES)
*
*    To create your own custom templates  simply save your standard
*    input data file (*.dat) in the template sub-folder of PCSWMM.
*    The template folder can also be reassigned in the New dialog box
*    of PCSWMM (From the File menu  choose New...).
*
*    This file will not run as is - some or all of the optional lines
*    may need to be removed depending on the purpose of the file. You
*    also must replace all parameter values with ones relevant to your
*    model.
*    See the SWMM manuals for additional notes on input format.
*============================================================================
SW  1       0       9
MM  9       1       2       3       10      11      12      13      14      15
@   9       '10yrdev.DNT'

[OPTIONS]
;;Option             Value
FLOW_UNITS           CFS
INFILTRATION         HORTON
FLOW_ROUTING         DYNWAVE
LINK_OFFSETS         DEPTH
MIN_SLOPE            0
ALLOW_PONDING        NO
SKIP_STEADY_STATE    NO

START_DATE           01/17/2010
START_TIME           00:00:00
REPORT_START_DATE    01/17/2010
REPORT_START_TIME    00:00:00
END_DATE             01/20/2010
END_TIME             00:00:00
SWEEP_START          01/01
SWEEP_END            12/31
DRY_DAYS             0
REPORT_STEP          00:15:00
WET_STEP             00:15:00
DRY_STEP             02:00:00
ROUTING_STEP         0:00:10 

INERTIAL_DAMPING     NONE
NORMAL_FLOW_LIMITED  BOTH
FORCE_MAIN_EQUATION  H-W
VARIABLE_STEP        0.75
LENGTHENING_STEP     1
MIN_SURFAREA         12.566
MAX_TRIALS           8
HEAD_TOLERANCE       0.005
SYS_FLOW_TOL         5
LAT_FLOW_TOL         5
MINIMUM_STEP         0.5
THREADS              1

[EVAPORATION]
;;Data Source    Parameters
;;-------------- ----------------
MONTHLY          0.1    0.1    0.15   0.3    0.35   0.7    0.7    0.8    0.7    0.5    0.15   0.1   
DRY_ONLY         NO

[RAINGAGES]
;;Name           Format    Interval SCF      Source    
;;-------------- --------- ------ ------ ----------
GAGE2            INTENSITY 1:00     1        TIMESERIES 2010_Dulles     

[SUBCATCHMENTS]
;;Name           Rain Gage        Outlet           Area     %Imperv  Width    %Slope   CurbLen  SnowPack        
;;-------------- ---------------- ---------------- -------- -------- -------- -------- -------- ----------------
SubCatchDFBA0001A GAGE2            DFBA0001AE       1.900000 7.1213   38.5     7        0                        
SubCatchDFBA0001C GAGE2            DFBA0001C        155.300000 4.78708  3151     7        0                        
SubCatchDFBA0002A GAGE2            9                7.600000 3.13259  166.2    10       0                        
SubCatchDFBA0002C GAGE2            DFBA0002C        99.100000 2.9214   2167.3   10       0                        
SubCatchDFBA0003A GAGE2            27               74.100000 2.3436   1595.8   11       0                        
SubCatchDFBA0003C GAGE2            29               145.300000 3.18348  3129     11       0                        
SubCatchDFCH0002A GAGE2            DFCH0002C        38.800000 4.91478  526.5    6        0                        
SubCatchDFCH0002C GAGE2            DFCH0002C        335.400000 3.52968  4550.8   6        0                        
SubCatchDFCH0003A GAGE2            37               31.700000 3.72293  544.5    6        0                        
SubCatchDFCH0003B GAGE2            DFCH0002C        18.600000 2.39131  319.5    6        0                        
SubCatchDFCH0003C GAGE2            DFCH0003C        211.300000 3.86765  3629.4   6        0                        
SubCatchDFCH0004A GAGE2            49               49.500000 2.79115  839.5    8        0                        
SubCatchDFCH0004B GAGE2            48               9.400000 1.76436  159.4    8        0                        
SubCatchDFCH0004C GAGE2            47               244.900000 3.4224   4153.5   8        0                        
SubCatchDFCH0005A GAGE2            59               20.400000 3.22913  191      8        0                        
SubCatchDFCH0005B GAGE2            60               5.200000 0.83782  48.7     8        0                        
SubCatchDFCH0005C GAGE2            61               210.500000 2.52198  1970.7   8        0                        
SubCatchDFCH0006A GAGE2            349              2.900000 1.48694  98.3     13       0                        
SubCatchDFCH0006C GAGE2            DFDF0047CT       155.300000 1.15711  5264     13       0                        
SubCatchDFCH9701A GAGE2            80               11.300000 2.4219   372      9        0                        
SubCatchDFCH9701C GAGE2            DFCH9701C        72.900000 2.5075   2400     9        0                        
SubCatchDFCH9801A GAGE2            DFCH9801AE       32.300000 19.6398  411.1    7        0                        
SubCatchDFCH9801C GAGE2            DFCH9801C        244.700000 11.54608 3114.7   7        0                        
SubCatchDFCR0001A GAGE2            85               29.900000 33.69184 567      6        0                        
SubCatchDFCR0001B GAGE2            DFCR0001C        37.500000 44.28729 711.2    6        0                        
SubCatchDFCR0001C GAGE2            84               108.100000 38.0494  2050     6        0                        
SubCatchDFCR0003A GAGE2            91               22.000000 47.17719 474.6    7        0                        
SubCatchDFCR0003B GAGE2            93               10.300000 71.17229 222.2    7        0                        
;SubCatchDFCR0003C	GAGE2           	DFCR0003C       	160.7	17.89187	3466.7	7	0
SubCatchDFCR0004A GAGE2            101              33.700000 59.84306 570.3    9        0                        
SubCatchDFCR0004B GAGE2            99               2.600000 59.064   44       9        0                        
SubCatchDFCR0004C GAGE2            DFCR0004C        175.900000 21.6783  2976.5   9        0                        
SubCatchDFCR0005A GAGE2            109              4.500000 0        194.7    11       0                        
SubCatchDFCR0005C GAGE2            DFCR0005C        59.100000 2.17     2556.9   11       0                        
SubCatchDFCR0006A GAGE2            112              3.900000 1.9845   96.5     10       0                        
SubCatchDFCR0006C GAGE2            DFCR0006C        108.200000 3.38923  2676.5   10       0                        
SubCatchDFCR0007A GAGE2            127              38.600000 3.91037  730.7    10       0                        
SubCatchDFCR0007B GAGE2            128              2.300000 1.48304  43.5     10       0                        
SubCatchDFCR0007C GAGE2            DFCR0007C        216.500000 1.58574  4098.2   10       0                        
SubCatchDFCR0008A GAGE2            134              121.800000 5.41671  2499.8   10       0                        
SubCatchDFCR0008C GAGE2            DFCR0008C        129.700000 2.99908  2662     10       0                        
SubCatchDFCR0009A GAGE2            141              51.800000 6.92111  701.8    10       0                        
SubCatchDFCR0009B GAGE2            DFCR0009C        19.200000 6.15825  260.1    10       0                        
SubCatchDFCR0009C GAGE2            DFCR0009C        71.900000 14.30163 974.1    10       0                        
SubCatchDFCR8801A GAGE2            DFCR8801AE       47.300000 2.84876  1128.1   10       0                        
SubCatchDFCR8801C GAGE2            DFCR8801C        114.900000 2.08448  2740.2   10       0                        
SubCatchDFCR8901A GAGE2            DFCR8901AE       1.900000 2.9736   40.6     9        0                        
SubCatchDFCR8901C GAGE2            DFCR8901C        76.100000 4.9816   1624.8   9        0                        
SubCatchDFCR9001A GAGE2            181              12.000000 3.245    315.4    8        0                        
;SubCatchDFCR9001B	GAGE2	DFCR9001B	0	;Skip this subcatchment: Area = 0
SubCatchDFCR9001C GAGE2            DFCR9001C        129.600000 10.91516 3406.3   8        0                        
SubCatchDFCR9101A GAGE2            DFCR9101AE       12.600000 2.05639  257      8        0                        
SubCatchDFCR9101C GAGE2            DFCR9101C        115.500000 2.00834  2355.9   8        0                        
SubCatchDFCR9201A GAGE2            DFCR9201AE       2.800000 6.28694  106.7    9        0                        
SubCatchDFCR9201C GAGE2            DFCR9201C        85.800000 0.1066   3270.8   9        0                        
;SubCatchDFCR9301A	GAGE2           	DFCR9301A       	79.3	34.2054	1587	7	0
SubCatchDFCR9301C GAGE2            165              97.600000 13.58563 1953.3   7        0                        
SubCatchDFCR9401A GAGE2            DFCR9401AE       98.600000 55.44772 1035.6   6        0                        
SubCatchDFCR9401C GAGE2            DFCR9401C        222.000000 40.34448 2331.8   6        0                        
SubCatchDFCR9501A GAGE2            DFCR9501AE       0.800000 6.29827  17.5     8        0                        
SubCatchDFCR9501B GAGE2            DFCR9501AE       40.700000 5.2114   891.9    8        0                        
SubCatchDFCR9501C GAGE2            DFCR9501C        136.300000 7.34589  2986.8   8        0                        
SubCatchDFCR9601A GAGE2            DFCR9601AE       28.800000 11.26745 714.8    9        0                        
SubCatchDFCR9601B GAGE2            DFCR9601AE       5.300000 4.74903  131.6    9        0                        
SubCatchDFCR9601C GAGE2            DFCR9601C        142.900000 7.7073   3546.9   9        0                        
SubCatchDFCR9701A GAGE2            DFCR9701AE       29.300000 29.88664 751.2    7        0                        
SubCatchDFCR9701C GAGE2            DFCR9701C        203.400000 13.34784 5214.5   7        0                        
SubCatchDFCR9702A GAGE2            151              2.400000 30.1543  99.3     13       0                        
SubCatchDFCR9702C GAGE2            151              31.600000 26.838   1308.1   13       0                        
SubCatchDFCR9703A GAGE2            160              34.600000 8.90136  1315.8   12       0                        
SubCatchDFCR9703C GAGE2            DFCR9703C        20.500000 16.61275 779.6    12       0                        
SubCatchDFCR9801A GAGE2            DFCR9801BE       54.700000 11.33579 1052.1   7        0                        
SubCatchDFCR9801B GAGE2            DFCR9801BE       16.900000 9.82817  325.1    7        0                        
SubCatchDFCR9801C GAGE2            DFCR9801BE       60.400000 11.87643 1161.8   7        0                        
SubCatchDFCR9802A GAGE2            DFCR9902C        5.100000 31.79612 66.5     7        0                        
SubCatchDFCR9802B GAGE2            DFCR9902C        0.100000 0        1.3      7        0                        
SubCatchDFCR9802C GAGE2            DFCR9802C        90.500000 16.1076  1180.1   7        0                        
SubCatchDFCR9902A GAGE2            DFCR9902AE       60.700000 10.89551 1325.2   9        0                        
SubCatchDFCR9902B GAGE2            DFCR9902AE       0.900000 4.3134   19.6     9        0                        
SubCatchDFCR9902C GAGE2            DFCR9902C        112.500000 13.1898  2456.1   9        0                        
SubCatchDFCR9903A GAGE2            DFCR2000C        9.000000 35.13809 162      7        0                        
SubCatchDFCR9903B GAGE2            DFCR2000C        4.300000 18.1337  77.4     7        0                        
SubCatchDFCR9903C GAGE2            DFCR9903C        171.000000 15.3296  3077.4   7        0                        
SubCatchDFCR9904A GAGE2            151              8.000000 26.68248 87.8     9        0                        
SubCatchDFCR9904B GAGE2            151              0.900000 11.2365  9.9      9        0                        
SubCatchDFCR9904C GAGE2            DFCR9904C        100.000000 20.4847  1097.8   9        0                        
SubCatchDFDF0001A GAGE2            DFDF0001AE       38.900000 30.58532 435      6        0                        
SubCatchDFDF0001B GAGE2            DFDF0001AE       16.000000 38.63875 178.9    6        0                        
SubCatchDFDF0001C GAGE2            DFDF0001C        250.500000 19.68847 2800.9   6        0                        
SubCatchDFDF0003A GAGE2            191              10.000000 68.59    138.8    6        0                        
SubCatchDFDF0003B GAGE2            189              11.700000 26.3247  162.5    6        0                        
SubCatchDFDF0003C GAGE2            DFDF0003C        71.000000 7.98201  985.8    6        0                        
SubCatchDFDF0005A GAGE2            198              31.100000 70.7115  170.4    5        0                        
SubCatchDFDF0005B GAGE2            192              21.100000 43.5534  115.6    5        0                        
SubCatchDFDF0005C GAGE2            DFDF0005C        189.400000 24.5784  1037.6   5        0                        
SubCatchDFDF0007C GAGE2            DFDF0007C        128.000000 21.42231 2238     8        0                        
SubCatchDFDF0009A GAGE2            DFDF0009AE       53.700000 66.47752 914.1    7        0                        
SubCatchDFDF0009B GAGE2            DFDF0009AE       3.500000 37.27291 59.6     7        0                        
SubCatchDFDF0009C GAGE2            DFDF0009C        137.500000 27.16155 2340.7   7        0                        
SubCatchDFDF0011A GAGE2            209              4.100000 13.43993 77.3     8        0                        
SubCatchDFDF0011B GAGE2            206              11.300000 7.61644  213.1    8        0                        
SubCatchDFDF0011C GAGE2            DFDF0011C        126.400000 3.47846  2383.3   8        0                        
SubCatchDFDF0013A GAGE2            214              4.300000 2.34749  85.8     9        0                        
SubCatchDFDF0013B GAGE2            215              1.000000 1.52545  19.9     9        0                        
SubCatchDFDF0013C GAGE2            DFDF0013C        93.400000 2.6691   1863.3   9        0                        
SubCatchDFDF0015A GAGE2            221              21.400000 3.27473  398      10       0                        
SubCatchDFDF0015B GAGE2            216              18.400000 2.2701   342.2    10       0                        
SubCatchDFDF0015C GAGE2            416              183.600000 2.21324  3414.4   10       0                        
SubCatchDFDF0017A GAGE2            224              63.100000 3.88265  961.7    10       0                        
SubCatchDFDF0017B GAGE2            DFDF0017C        7.200000 2.17747  109.7    10       0                        
SubCatchDFDF0017C GAGE2            DFDF0017C        129.900000 4.29024  1979.7   10       0                        
SubCatchDFDF0019A GAGE2            DFDF1006C        15.800000 5.84619  380      10       0                        
SubCatchDFDF0019B GAGE2            231              0.900000 2.63659  21.6     10       0                        
SubCatchDFDF0019C GAGE2            DFDF0019C        169.800000 1.8354   4084     10       0                        
SubCatchDFDF0021A GAGE2            241              67.800000 3.1326   1567.7   10       0                        
SubCatchDFDF0021B GAGE2            243              8.500000 2.22097  196.5    10       0                        
SubCatchDFDF0021C GAGE2            DFDF0021C        204.200000 1.38239  4721.7   10       0                        
SubCatchDFDF0023A GAGE2            255              67.700000 3.87464  948.8    11       0                        
SubCatchDFDF0023B GAGE2            DFDF2000C        2.300000 0.1188   32.2     11       0                        
SubCatchDFDF0023C GAGE2            DFDF2000C        59.500000 13.0064  833.9    11       0                        
;SubCatchDFDF0025A	GAGE2           	DFDF0025A       	24.9	9.19213	388.2	10	0
SubCatchDFDF0025B GAGE2            259              39.200000 0.462    611.1    10       0                        
SubCatchDFDF0025C GAGE2            259              144.400000 3.19725  2251     10       0                        
SubCatchDFDF0027A GAGE2            271              5.500000 4.1144   163.9    13       0                        
SubCatchDFDF0027B GAGE2            DFDF1018C        4.700000 3.38233  140.1    13       0                        
SubCatchDFDF0027C GAGE2            DFDF0027C        155.800000 2.49307  4644.2   13       0                        
SubCatchDFDF0029A GAGE2            281              10.100000 2.04277  227.8    14       0                        
SubCatchDFDF0029B GAGE2            DFDF0029C        18.900000 2.22921  426.3    14       0                        
SubCatchDFDF0029C GAGE2            DFDF0029C        55.800000 2.65791  1258.5   14       0                        
SubCatchDFDF0031A GAGE2            289              64.800000 2.67221  1341     12       0                        
SubCatchDFDF0031B GAGE2            285              9.200000 1.55866  190.4    12       0                        
SubCatchDFDF0031C GAGE2            DFDF0031C        129.700000 2.85278  2684.1   12       0                        
SubCatchDFDF0033A GAGE2            738              46.200000 3.11321  893.4    9        0                        
SubCatchDFDF0033B GAGE2            31               4.400000 1.0332   85.1     9        0                        
SubCatchDFDF0033C GAGE2            DFDF0033C        148.400000 2.99124  2869.6   9        0                        
SubCatchDFDF0035A GAGE2            311              11.000000 4.77532  213.9    10       0                        
SubCatchDFDF0035B GAGE2            DFDF0035CT       1.900000 2.84587  36.9     10       0                        
SubCatchDFDF0035C GAGE2            DFDF0035C        285.500000 2.21621  5551.2   10       0                        
;SubCatchDFDF0037A	GAGE2           	DFDF0037A       	87.6	3.46639	759.1	9	0
SubCatchDFDF0037B GAGE2            314              8.700000 2.15398  75.4     9        0                        
;SubCatchDFDF0037C	GAGE2           	DFDF0037C       	165	7.97069	1429.9	9	0
SubCatchDFDF0039A GAGE2            327              69.900000 6.5376   1083.3   10       0                        
SubCatchDFDF0039B GAGE2            323              5.200000 1.65945  80.6     10       0                        
SubCatchDFDF0039C GAGE2            DFDF0039C        125.800000 3.35742  1949.7   10       0                        
SubCatchDFDF0041A GAGE2            333              24.700000 5.23366  642.9    10       0                        
SubCatchDFDF0041B GAGE2            333              49.700000 1.73402  1293.7   10       0                        
SubCatchDFDF0041C GAGE2            DFDF0041C        105.500000 2.98215  2746.2   10       0                        
SubCatchDFDF0043A GAGE2            336              42.200000 5.9103   511.5    7        0                        
SubCatchDFDF0043B GAGE2            341              1.900000 2.31924  23       7        0                        
SubCatchDFDF0043C GAGE2            337              66.700000 3.7417   808.4    7        0                        
SubCatchDFDF0045A GAGE2            343              12.500000 13.17274 147.9    10       0                        
SubCatchDFDF0045B GAGE2            141              22.800000 4.58307  269.7    10       0                        
SubCatchDFDF0045C GAGE2            DFDF0045C        113.300000 5.82326  1340.2   10       0                        
SubCatchDFDF0047A GAGE2            DFDF0045C        17.800000 4.92246  315.2    10       0                        
SubCatchDFDF0047B GAGE2            348              55.200000 2.27607  977.6    10       0                        
SubCatchDFDF0047C GAGE2            DFDF0047C        174.200000 2.8636   3085.1   10       0                        
SubCatchDFDF0049A GAGE2            358              3.500000 5.6009   76       13       0                        
;SubCatchDFDF0049C	GAGE2           	DFDF0049C       	152.9	2.11109	3318	13	0
SubCatchDFDF0051A GAGE2            DFDF1032C        15.100000 3.41307  197.4    11       0                        
SubCatchDFDF0051B GAGE2            368              9.200000 2.27136  120.3    11       0                        
SubCatchDFDF0051C GAGE2            DFDF0051C        211.900000 2.02316  2770.5   11       0                        
SubCatchDFDF0053A GAGE2            377              9.800000 3.43543  117.6    13       0                        
SubCatchDFDF0053B GAGE2            372              10.700000 1.8979   128.4    13       0                        
SubCatchDFDF0053C GAGE2            DFDF0053C        167.100000 2.45154  2005.4   13       0                        
SubCatchDFDF0055A GAGE2            374              14.200000 1.90931  228.7    14       0                        
SubCatchDFDF0055B GAGE2            1017             12.700000 1.44791  204.6    14       0                        
SubCatchDFDF0055C GAGE2            DFDF0055C        210.400000 1.63254  3389.4   14       0                        
SubCatchDFDF0057B GAGE2            390              8.100000 1.97379  128.8    21       0                        
;SubCatchDFDF0057C	GAGE2           	DFDF0057C       	260.2	1.69377	4136.4	21	0
SubCatchDFDF5901A GAGE2            DFDF5901AE       3.700000 3.87069  70.8     12       0                        
SubCatchDFDF5901C GAGE2            DFDF5901C        238.900000 2.11596  4568.4   12       0                        
SubCatchDFDF5902A GAGE2            470              4.000000 3.99852  50.1     12       0                        
SubCatchDFDF5902B GAGE2            470              1.200000 3.456    15       12       0                        
SubCatchDFDF5902C GAGE2            DFDF5902C        86.700000 5.0569   1085.4   12       0                        
SubCatchDFDF6102A GAGE2            DFDF6102AE       60.600000 3.35768  1229.4   11       0                        
SubCatchDFDF6102C GAGE2            DFDF6102C        255.600000 3.35808  5185.6   11       0                        
SubCatchDFDF6501A GAGE2            DFDF6501AE       34.600000 4.76453  1709.6   10       0                        
SubCatchDFDF6501C GAGE2            DFDF6501C        72.400000 3.76724  3577.2   10       0                        
SubCatchDFDF6701A GAGE2            DFDF6701AE       27.100000 5.5176   774.5    10       0                        
SubCatchDFDF6701B GAGE2            464              2.600000 2.60938  74.3     10       0                        
SubCatchDFDF6701C GAGE2            DFDF6701C        70.400000 7.4046   2012     10       0                        
SubCatchDFDF6801A GAGE2            DFDF6801AE       19.900000 2.81736  515.7    12       0                        
SubCatchDFDF6801C GAGE2            DFDF6801C        48.100000 4.0077   1246.6   12       0                        
SubCatchDFDF6901A GAGE2            DFDF6901AE       22.600000 41.1501  456.6    8        0                        
SubCatchDFDF6901C GAGE2            DFDF6901C        149.000000 24.255   3010.7   8        0                        
SubCatchDFDF6902A GAGE2            DFDF6902C        18.100000 7.5582   209.9    8        0                        
SubCatchDFDF6902C GAGE2            DFDF6902C        279.800000 8.93646  3244.6   8        0                        
SubCatchDFDF7102A GAGE2            DFDF7102AE       81.300000 2.74086  1688.7   10       0                        
SubCatchDFDF7102B GAGE2            DFDF7102AE       27.600000 6.22751  573.3    10       0                        
SubCatchDFDF7102C GAGE2            DFDF7102C        134.500000 6.51168  2793.7   10       0                        
SubCatchDFDF7301A GAGE2            446              14.700000 5.3086   411      11       0                        
SubCatchDFDF7301B GAGE2            DFDF7301AE       27.700000 2.2274   774.6    11       0                        
SubCatchDFDF7301C GAGE2            DFDF7301C        68.500000 3.88204  1915.4   11       0                        
SubCatchDFDF7501A GAGE2            257              20.300000 2.07814  407.9    9        0                        
SubCatchDFDF7501B GAGE2            258              4.500000 1.28671  90.4     9        0                        
SubCatchDFDF7501C GAGE2            DFDF1016C        216.100000 2.37145  4341.7   9        0                        
SubCatchDFDF7701A GAGE2            246              22.700000 1.80971  372.1    10       0                        
SubCatchDFDF7701C GAGE2            246              60.000000 2.88467  983.6    10       0                        
SubCatchDFDF7901A GAGE2            DFDF7901AE       54.800000 3.52035  1933.1   9        0                        
SubCatchDFDF7901C GAGE2            DFDF7901C        28.400000 7.83974  1001.9   9        0                        
SubCatchDFDF8101A GAGE2            441              37.300000 4.52736  834.4    9        0                        
SubCatchDFDF8101C GAGE2            DFDF8101C        65.500000 3.88395  1465.2   9        0                        
;SubCatchDFDF8301A	GAGE2	DFDF8301A	0	;Skip this subcatchment: Area = 0
SubCatchDFDF8301B GAGE2            DFDF8301A        5.100000 2.5935   157.5    8        0                        
SubCatchDFDF8301C GAGE2            DFDF8301C        98.700000 2.91034  3047.9   8        0                        
SubCatchDFDF8501A GAGE2            DFDF8501AE       7.700000 3.84768  202.6    9        0                        
SubCatchDFDF8501C GAGE2            DFDF8501C        46.100000 3.18686  1213.2   9        0                        
SubCatchDFDF8701A GAGE2            DFDF8701AE       14.200000 3.99595  414.4    9        0                        
SubCatchDFDF8701C GAGE2            DFDF8701C        40.600000 5.71522  1185     9        0                        
SubCatchDFDF8901A GAGE2            DFDFFH5          77.500000 4.00752  1275.8   9        0                        
SubCatchDFDF8901B GAGE2            DFDFFH5          32.900000 2.34511  541.6    9        0                        
SubCatchDFDF8901C GAGE2            DFDF8901C        198.800000 3.86505  3272.6   9        0                        
SubCatchDFDF9101A GAGE2            DFDF9101AE       46.700000 4.39763  1216.2   10       0                        
;SubCatchDFDF9101B	GAGE2	DFDF9101B	0	;Skip this subcatchment: Area = 0
SubCatchDFDF9101C GAGE2            DFDF9101C        62.100000 4.99365  1617.2   10       0                        
SubCatchDFDF9203A GAGE2            DFDF9203AE       111.800000 4.68812  1584.4   8        0                        
SubCatchDFDF9203C GAGE2            DFDF9203C        201.100000 4.21572  2849.8   8        0                        
SubCatchDFDF9303A GAGE2            DFDF9303C        65.900000 18.81775 1207.1   8        0                        
SubCatchDFDF9303B GAGE2            DFDF9303C        26.400000 2.4882   483.6    8        0                        
SubCatchDFDF9303C GAGE2            DFDF9303C        223.000000 4.84318  4084.6   8        0                        
SubCatchDFDF9501A GAGE2            DFDF9501AE       29.300000 55.69007 366      3        0                        
SubCatchDFDF9501C GAGE2            DFDF9501C        106.900000 36.37834 1335.4   3        0                        
SubCatchDFDF9502A GAGE2            403              10.800000 65.34228 80.9     7        0                        
;SubCatchDFDF9502B	GAGE2	DFDF9502B	0	;Skip this subcatchment: Area = 0
SubCatchDFDF9502C GAGE2            DFDF9502C        179.600000 10.7916  1344.7   7        0                        
SubCatchDFDF9701A GAGE2            DFDF9701AE       29.200000 63.5835  404.3    6        0                        
SubCatchDFDF9701C GAGE2            DFDF9701C        121.800000 35.32973 1686.6   6        0                        
SubCatchDFDF9901A GAGE2            DFDF9901AE       9.500000 31.69344 168.2    7        0                        
;SubCatchDFDF9901B	GAGE2	DFDF9901B	0	;Skip this subcatchment: Area = 0
SubCatchDFDF9901C GAGE2            DFDF9901C        232.300000 18.5505  4112.4   7        0                        
SubCatchDFDG0002A GAGE2            DFDG0002C        39.500000 5.11629  671.2    6        0                        
SubCatchDFDG0002C GAGE2            DFDG0002C        188.600000 4.02192  3204.6   6        0                        
SubCatchDFDG0003A GAGE2            476              14.700000 3.72902  421.3    8        0                        
;SubCatchDFDG0003B	GAGE2	DFDG0003B	0	;Skip this subcatchment: Area = 0
SubCatchDFDG0003C GAGE2            499              84.900000 5.9429   2433.4   8        0                        
SubCatchDFDG9901A GAGE2            DFDG9901C        16.400000 5.5476   341.7    6        0                        
;SubCatchDFDG9901B	GAGE2	DFDG9901B	0	;Skip this subcatchment: Area = 0
SubCatchDFDG9901C GAGE2            DFDG9901C        171.300000 12.13128 3568.9   6        0                        
SubCatchDFGL0001A GAGE2            DFGL0001AE       0.500000 22.32783 6.3      6        0                        
SubCatchDFGL0001C GAGE2            DFGL0001C        231.300000 11.5344  2909.8   6        0                        
SubCatchDFGL0002A GAGE2            505              32.700000 10.04573 601      8        0                        
SubCatchDFGL0002B GAGE2            521              2.200000 5.1156   40.4     8        0                        
SubCatchDFGL0002C GAGE2            DFGL0002C        240.000000 7.09512  4411     8        0                        