[TITLE]

[OPTIONS]
FLOW_UNITS          	LPS
INFILTRATION        	HORTON
FLOW_ROUTING        	DYNWAVE
START_DATE          	01/01/1985
START_TIME          	00:00:00
REPORT_START_DATE   	01/01/1985
REPORT_START_TIME   	00:00:00
END_DATE            	12/31/1994
END_TIME            	23:00:00
SWEEP_START         	01/01
SWEEP_END           	12/31
DRY_DAYS            	0
REPORT_STEP         	01:00:00
WET_STEP            	00:30:00
DRY_STEP            	01:00:00
ROUTING_STEP        	0:00:30 
ALLOW_PONDING       	NO
INERTIAL_DAMPING    	NONE
VARIABLE_STEP       	0.75
LENGTHENING_STEP    	1
MIN_SURFAREA        	0
NORMAL_FLOW_LIMITED 	BOTH
SKIP_STEADY_STATE   	NO
FORCE_MAIN_EQUATION 	H-W
LINK_OFFSETS        	DEPTH
MIN_SLOPE           	0

[EVAPORATION]
;;Type      	Parameters
;;----------	----------
CONSTANT    	0.0
DRY_ONLY     NO

[RAINGAGES]
;;              	Rain     	Time  	Snow  	Data      
;;Name          	Type     	Intrvl	Catch 	Source    
;;--------------	---------	------	------	----------
1               	VOLUME   	1:00  	1.0   	TIMESERIES	dusche          

[SUBCATCHMENTS]
;;              	                	                	Total   	Pcnt.   	        	Pcnt.   	Curb    	Snow    
;;Name          	Raingage        	Outlet          	Area    	Imperv  	Width   	Slope   	Length  	Pack    
;;--------------	----------------	----------------	--------	--------	--------	--------	--------	--------
30c             	1               	4               	50      	100     	707     	0.5     	0       	                

[SUBAREAS]
;;Subcatchment  	N-Imperv  	N-Perv    	S-Imperv  	S-Perv    	PctZero   	RouteTo   	PctRouted 
;;--------------	----------	----------	----------	----------	----------	----------	----------
30c             	0.01      	0.1       	0.05      	0.05      	0         	OUTLET    

[INFILTRATION]
;;Subcatchment  	MaxRate   	MinRate   	Decay     	DryTime   	MaxInfil  
;;--------------	----------	----------	----------	----------	----------
30c             	0         	0         	4         	7         	0         

[JUNCTIONS]
;;              	Invert    	Max.      	Init.     	Surcharge 	Ponded    
;;Name          	Elev.     	Depth     	Depth     	Depth     	Area      
;;--------------	----------	----------	----------	----------	----------
4               	98        	2.5       	0         	0         	0         
1               	97        	3.5       	0         	0         	0         

[OUTFALLS]
;;              	Invert    	Outfall   	Stage/Table     	Tide
;;Name          	Elev.     	Type      	Time Series     	Gate
;;--------------	----------	----------	----------------	----
WWTP            	96.8      	FREE      	                	NO
Clarified       	94        	FREE      	                	NO
emergency       	94        	FREE      	                	NO

[STORAGE]
;;              	Invert  	Max.    	Init.   	Storage   	Curve   	        	        	Ponded  	Evap.   
;;Name          	Elev.   	Depth   	Depth   	Curve     	Params  	        	        	Area    	Frac.   	Infiltration Parameters
;;--------------	--------	--------	--------	----------	--------	--------	--------	--------	--------	-----------------------
22              	93.5    	7       	0       	TABULAR   	tank1           		        	0       	0       

[CONDUITS]
;;              	Inlet           	Outlet          	          	Manning   	Inlet     	Outlet    	Init.     	Max.      
;;Name          	Node            	Node            	Length    	N         	Offset    	Offset    	Flow      	Flow      
;;--------------	----------------	----------------	----------	----------	----------	----------	----------	----------
3               	4               	1               	600       	0.013     	0         	0         	0         	0         
9               	1               	WWTP            	100       	0.013     	0         	0         	0         	35        

[PUMPS]
;;              	Inlet           	Outlet          	Pump            	Init. 	Startup 	Shutoff 
;;Name          	Node            	Node            	Curve           	Status	Depth   	Depth   
;;--------------	----------------	----------------	----------------	------	--------	--------
4               	22              	1               	curve9          	ON    	0       	0       

[WEIRS]
;;              	Inlet           	Outlet          	Weir        	Crest     	Disch.    	Flap	End     	End       
;;Name          	Node            	Node            	Type        	Height    	Coeff.    	Gate	Con.    	Coeff.    
;;--------------	----------------	----------------	------------	----------	----------	----	--------	----------
13              	1               	22              	TRANSVERSE  	0.12      	1.84      	NO  	0       	0         

[OUTLETS]
;;              	Inlet           	Outlet          	Outflow   	Outlet         	Qcoeff/         	          	Flap
;;Name          	Node            	Node            	Height    	Type           	QTable          	Qexpon    	Gate
;;--------------	----------------	----------------	----------	---------------	----------------	----------	----
2               	22              	Clarified       	3.5       	TABULAR/DEPTH  	Clarified       	          	YES 
Overflow        	22              	emergency       	3.5       	TABULAR/DEPTH  	Emergency       	          	YES 

[XSECTIONS]
;;Link          	Shape       	Geom1           	Geom2     	Geom3     	Geom4     	Barrels   
;;--------------	------------	----------------	----------	----------	----------	----------
3               	CIRCULAR    	1               	0         	0         	0         	1         	          
9               	CIRCULAR    	0.3             	0         	0         	0         	1         	          
13              	RECT_OPEN   	3               	1         	0         	0         

[LOSSES]
;;Link          	Inlet     	Outlet    	Average   	Flap Gate 
;;--------------	----------	----------	----------	----------
3               	0         	0         	0         	YES

[CONTROLS]
RULE MC1
IF LINK 3 FLOW > 35
THEN WEIR 13 SETTING = 1
ELSE WEIR 13 SETTING = 0

RULE MC3
IF LINK 13 FLOW = 0
THEN PUMP 4 STATUS = ON
ELSE PUMP 4 STATUS = OFF

RULE Emergency
IF LINK 3 FLOW > 750
THEN OUTLET 2 SETTING = 0

RULE NonEmergency
IF LINK 3 FLOW  <= 750
THEN OUTLET 2 SETTING = 1.0

[DWF]
;;              	                	Average   	Time      
;;Node          	Parameter       	Value     	Patterns  
;;--------------	----------------	----------	----------
4               	FLOW            	7.56      	""

[CURVES]
;;Name          	Type      	X-Value   	Y-Value   
;;--------------	----------	----------	----------
qwe             	Diversion 	1         	2         

curve9          	Pump2     	0         	20        
curve9          	          	3.5       	20        

Clarified       	Rating    	0         	0         
Clarified       	          	0.0001    	0.014586  
Clarified       	          	0.0006    	0.214369544
Clarified       	          	0.0016    	0.933504  
Clarified       	          	0.0026    	1.933731764
Clarified       	          	0.0036    	3.150576  
Clarified       	          	0.0046    	4.550644996
Clarified       	          	0.0056    	6.11249124
Clarified       	          	0.0066    	7.820816795
Clarified       	          	0.0076    	9.663992799
Clarified       	          	0.0086    	11.63278995
Clarified       	          	0.0096    	13.71965084
Clarified       	          	0.0106    	15.91823849
Clarified       	          	0.0116    	18.22313922
Clarified       	          	0.0126    	20.62965794
Clarified       	          	0.0136    	23.1336719
Clarified       	          	0.0146    	25.73152305
Clarified       	          	0.0156    	28.41993673
Clarified       	          	0.0166    	31.19595903
Clarified       	          	0.0176    	34.05690759
Clarified       	          	0.0186    	37.00033239
Clarified       	          	0.0196    	40.023984 
Clarified       	          	0.0206    	43.12578762
Clarified       	          	0.0216    	46.30382158
Clarified       	          	0.0226    	49.55629938
Clarified       	          	0.0236    	52.88155457
Clarified       	          	0.0246    	56.27802783
Clarified       	          	0.0256    	59.744256 
Clarified       	          	0.0266    	63.27886257
Clarified       	          	0.0276    	66.88054945
Clarified       	          	0.0286    	70.54808978
Clarified       	          	0.0296    	74.28032168
Clarified       	          	0.0306    	78.07614266
Clarified       	          	0.0316    	81.93450478
Clarified       	          	0.0326    	85.85441025
Clarified       	          	0.0336    	89.83490757
Clarified       	          	0.0346    	93.87508806
Clarified       	          	0.0356    	97.97408274
Clarified       	          	0.0366    	102.1310595
Clarified       	          	0.0376    	106.3452206
Clarified       	          	0.0386    	110.6158004
Clarified       	          	0.0396    	114.9420631
Clarified       	          	0.0406    	119.3233011
Clarified       	          	0.0416    	123.7588329
Clarified       	          	0.0426    	128.248002
Clarified       	          	0.0436    	132.790175
Clarified       	          	0.0446    	137.3847404
Clarified       	          	0.0456    	142.0311074
Clarified       	          	0.0466    	146.7287049
Clarified       	          	0.0476    	151.4769801
Clarified       	          	0.0486    	156.2753978
Clarified       	          	0.0496    	161.1234394
Clarified       	          	0.0506    	166.0206021
Clarified       	          	0.0516    	170.9663979
Clarified       	          	0.0526    	175.9603534
Clarified       	          	0.0536    	181.0020084
Clarified       	          	0.0546    	186.0909159
Clarified       	          	0.0556    	191.2266411
Clarified       	          	0.0566    	196.408761
Clarified       	          	0.0576    	201.636864
Clarified       	          	0.0586    	206.9105491
Clarified       	          	0.0596    	212.2294257
Clarified       	          	0.0606    	217.593113
Clarified       	          	0.0616    	223.0012398
Clarified       	          	0.0626    	228.4534437
Clarified       	          	0.0636    	233.9493714
Clarified       	          	0.0646    	239.4886778
Clarified       	          	0.0656    	245.0710256
Clarified       	          	0.0666    	250.6960857
Clarified       	          	0.0676    	256.363536
Clarified       	          	0.0686    	262.0730619
Clarified       	          	0.0696    	267.8243556
Clarified       	          	0.0706    	273.6171159
Clarified       	          	0.0716    	279.451048
Clarified       	          	0.0726    	285.3258635
Clarified       	          	0.0736    	291.2412798
Clarified       	          	0.0746    	297.19702 
Clarified       	          	0.0756    	303.1928131
Clarified       	          	0.0766    	309.2283931
Clarified       	          	0.0776    	315.3034996
Clarified       	          	0.0786    	321.4178771
Clarified       	          	0.0796    	327.5712748
Clarified       	          	0.0806    	333.7634469
Clarified       	          	0.0816    	339.9941522
Clarified       	          	0.0826    	346.2631537
Clarified       	          	0.0836    	352.570219
Clarified       	          	0.0846    	358.9151196
Clarified       	          	0.0856    	365.2976314
Clarified       	          	0.0866    	371.7175339
Clarified       	          	0.0876    	378.1746107
Clarified       	          	0.0886    	384.6686489
Clarified       	          	0.0896    	391.1994394
Clarified       	          	0.0906    	397.7667764
Clarified       	          	0.0916    	404.3704578
Clarified       	          	0.0926    	411.0102846
Clarified       	          	0.0936    	417.6860611
Clarified       	          	0.0946    	424.3975947
Clarified       	          	0.0956    	431.1446959
Clarified       	          	0.0966    	437.9271783
Clarified       	          	0.0976    	444.7448581
Clarified       	          	0.0986    	451.5975547
Clarified       	          	0.0996    	458.4850899
Clarified       	          	0.1006    	465.4072885
Clarified       	          	0.1016    	472.3639778
Clarified       	          	0.1026    	479.3549875
Clarified       	          	0.1036    	486.38015 
Clarified       	          	0.1046    	493.4393001
Clarified       	          	0.1056    	500.5322749
Clarified       	          	0.1066    	507.6589139
Clarified       	          	0.1076    	514.8190587
Clarified       	          	0.1086    	522.0125534
Clarified       	          	0.1096    	529.2392441
Clarified       	          	0.1106    	536.4989788
Clarified       	          	0.1116    	543.791608
Clarified       	          	0.1126    	551.1169839
Clarified       	          	0.1136    	558.4749608
Clarified       	          	0.1146    	565.8653948
Clarified       	          	0.1156    	573.288144
Clarified       	          	0.1166    	580.7430684
Clarified       	          	0.1176    	588.2300296
Clarified       	          	0.1186    	595.7488913
Clarified       	          	0.1196    	603.2995185
Clarified       	          	0.1206    	610.8817783
Clarified       	          	0.1216    	618.4955391
Clarified       	          	0.1226    	626.1406713
Clarified       	          	0.1236    	633.8170465
Clarified       	          	0.1246    	641.5245382
Clarified       	          	0.1256    	649.2630212
Clarified       	          	0.1266    	657.0323719
Clarified       	          	0.1276    	664.8324682
Clarified       	          	0.1286    	672.6631893
Clarified       	          	0.1296    	680.524416
Clarified       	          	0.1306    	688.4160303
Clarified       	          	0.1316    	696.3379156
Clarified       	          	0.1326    	704.2899567
Clarified       	          	0.1336    	712.2720397
Clarified       	          	0.1346    	720.284052
Clarified       	          	0.1356    	728.3258821
Clarified       	          	0.1366    	736.39742 
Clarified       	          	0.1376    	744.4985566
Clarified       	          	0.1385    	750       
Clarified       	          	0.13851   	750       
Clarified       	          	0.2       	750       
Clarified       	          	0.5       	750       
Clarified       	          	1         	750       

Emergency       	Rating    	0         	0         
Emergency       	          	0.1385    	0         
Emergency       	          	0.13851   	1.896222815
Emergency       	          	0.13951   	10.05359459
Emergency       	          	0.14051   	18.2402548
Emergency       	          	0.14151   	26.45609904
Emergency       	          	0.14251   	34.70102401
Emergency       	          	0.14351   	42.97492749
Emergency       	          	0.14451   	51.27770835
Emergency       	          	0.14551   	59.60926649
Emergency       	          	0.14651   	67.96950286
Emergency       	          	0.14751   	76.35831942
Emergency       	          	0.14851   	84.77561913
Emergency       	          	0.14951   	93.22130593
Emergency       	          	0.15051   	101.6952847
Emergency       	          	0.15151   	110.1974614
Emergency       	          	0.15251   	118.7277426
Emergency       	          	0.15351   	127.2860363
Emergency       	          	0.15451   	135.8722509
Emergency       	          	0.15551   	144.4862959
Emergency       	          	0.15651   	153.1280818
Emergency       	          	0.15751   	161.7975197
Emergency       	          	0.15851   	170.4945218
Emergency       	          	0.15951   	179.2190009
Emergency       	          	0.16051   	187.9708708
Emergency       	          	0.16151   	196.7500461
Emergency       	          	0.16251   	205.556442
Emergency       	          	0.16351   	214.3899747
Emergency       	          	0.16451   	223.2505611
Emergency       	          	0.16551   	232.1381188
Emergency       	          	0.16651   	241.0525663
Emergency       	          	0.16751   	249.9938226
Emergency       	          	0.16851   	258.9618076
Emergency       	          	0.16951   	267.9564419
Emergency       	          	0.17051   	276.9776468
Emergency       	          	0.17151   	286.0253442
Emergency       	          	0.17251   	295.0994567
Emergency       	          	0.17351   	304.1999078
Emergency       	          	0.17451   	313.3266214
Emergency       	          	0.17551   	322.4795222
Emergency       	          	0.17651   	331.6585354
Emergency       	          	0.17751   	340.8635869
Emergency       	          	0.17851   	350.0946034
Emergency       	          	0.17951   	359.3515119
Emergency       	          	0.18051   	368.6342403
Emergency       	          	0.18151   	377.942717
Emergency       	          	0.18251   	387.2768709
Emergency       	          	0.18351   	396.6366316
Emergency       	          	0.18451   	406.0219291
Emergency       	          	0.18551   	415.4326943
Emergency       	          	0.18651   	424.8688584
Emergency       	          	0.18751   	434.3303532
Emergency       	          	0.18851   	443.817111
Emergency       	          	0.18951   	453.3290649
Emergency       	          	0.19051   	462.8661481
Emergency       	          	0.19151   	472.4282946
Emergency       	          	0.19251   	482.0154391
Emergency       	          	0.19351   	491.6275163
Emergency       	          	0.19451   	501.2644619
Emergency       	          	0.19551   	510.9262117
Emergency       	          	0.19651   	520.6127024
Emergency       	          	0.19751   	530.3238709
Emergency       	          	0.19851   	540.0596545
Emergency       	          	0.19951   	549.8199913
Emergency       	          	0.20051   	559.6048196
Emergency       	          	0.20151   	569.4140783
Emergency       	          	0.20251   	579.2477067
Emergency       	          	0.20351   	589.1056445
Emergency       	          	0.20451   	598.987832
Emergency       	          	0.20551   	608.8942097
Emergency       	          	0.20651   	618.8247188
Emergency       	          	0.20751   	628.7793007
Emergency       	          	0.20851   	638.7578974
Emergency       	          	0.20951   	648.7604513
Emergency       	          	0.21051   	658.786905
Emergency       	          	0.21151   	668.8372017
Emergency       	          	0.21251   	678.9112851
Emergency       	          	0.21351   	689.009099
Emergency       	          	0.21451   	699.1305879
Emergency       	          	0.21551   	709.2756965
Emergency       	          	0.21651   	719.44437 
Emergency       	          	0.21751   	729.6365537
Emergency       	          	0.21851   	739.8521937
Emergency       	          	0.21951   	750.0912363
Emergency       	          	0.22051   	760.3536279
Emergency       	          	0.22151   	770.6393157
Emergency       	          	0.22251   	780.948247
Emergency       	          	0.22351   	791.2803695
Emergency       	          	0.22451   	801.6356313
Emergency       	          	0.22551   	812.0139807
Emergency       	          	0.22651   	822.4153665
Emergency       	          	0.22751   	832.8397379
Emergency       	          	0.22851   	843.2870442
Emergency       	          	0.22951   	853.7572352
Emergency       	          	0.23051   	864.2502611
Emergency       	          	0.23151   	874.7660721
Emergency       	          	0.23251   	885.3046191
Emergency       	          	0.23351   	895.8658531
Emergency       	          	0.23451   	906.4497255
Emergency       	          	0.23551   	917.0561879
Emergency       	          	0.23651   	927.6851923
Emergency       	          	0.23751   	938.3366912
Emergency       	          	0.23851   	949.0106369
Emergency       	          	0.23951   	959.7069824
Emergency       	          	0.24051   	970.425681
Emergency       	          	0.24151   	981.1666861
Emergency       	          	0.24251   	991.9299514
Emergency       	          	0.24351   	1002.715431
Emergency       	          	0.24451   	1013.523079
Emergency       	          	0.24551   	1024.352851
Emergency       	          	0.24651   	1035.204701
Emergency       	          	0.24751   	1046.078584
Emergency       	          	0.24851   	1056.974456
Emergency       	          	0.24951   	1067.892272
Emergency       	          	0.25051   	1078.831989
Emergency       	          	0.25151   	1089.793563
Emergency       	          	0.25251   	1100.77695
Emergency       	          	0.25351   	1111.782107
Emergency       	          	0.25451   	1122.808991
Emergency       	          	0.25551   	1133.857559
Emergency       	          	0.25651   	1144.927769
Emergency       	          	0.25751   	1156.019579
Emergency       	          	0.25851   	1167.132946
Emergency       	          	0.25951   	1178.26783
Emergency       	          	0.26051   	1189.424187
Emergency       	          	0.26151   	1200.601978
Emergency       	          	0.26251   	1211.801161
Emergency       	          	0.26351   	1223.021695
Emergency       	          	0.26451   	1234.26354
Emergency       	          	0.26551   	1245.526656
Emergency       	          	0.26651   	1256.811001
Emergency       	          	0.26751   	1268.116538
Emergency       	          	0.26851   	1279.443225
Emergency       	          	0.26951   	1290.791023
Emergency       	          	0.27051   	1302.159894
Emergency       	          	0.27151   	1313.549798
Emergency       	          	0.27251   	1324.960697
Emergency       	          	0.27351   	1336.392551
Emergency       	          	0.27451   	1347.845323
Emergency       	          	0.27551   	1359.318974
Emergency       	          	0.27651   	1370.813467
Emergency       	          	0.27751   	1382.328764
Emergency       	          	0.27851   	1393.864827
Emergency       	          	0.27951   	1405.421619
Emergency       	          	0.28051   	1416.999103
Emergency       	          	0.28151   	1428.597241
Emergency       	          	0.28251   	1440.215998
Emergency       	          	0.28351   	1451.855337
Emergency       	          	0.28451   	1463.515221
Emergency       	          	0.28551   	1475.195614
Emergency       	          	0.28651   	1486.896481
Emergency       	          	0.28751   	1498.617785
Emergency       	          	0.28851   	1510.35949
Emergency       	          	0.28951   	1522.121563
Emergency       	          	0.29051   	1533.903967
Emergency       	          	0.29151   	1545.706667
Emergency       	          	0.29251   	1557.529628
Emergency       	          	0.29351   	1569.372817
Emergency       	          	0.29451   	1581.236197
Emergency       	          	0.29551   	1593.119736
Emergency       	          	0.29651   	1605.023399
Emergency       	          	0.29751   	1616.947151
Emergency       	          	0.29851   	1628.89096
Emergency       	          	0.29951   	1640.854791
Emergency       	          	0.30051   	1652.838611
Emergency       	          	0.30151   	1664.842387
Emergency       	          	0.30251   	1676.866085
Emergency       	          	0.30351   	1688.909674
Emergency       	          	0.30451   	1700.973119
Emergency       	          	0.30551   	1713.056388
Emergency       	          	0.30651   	1725.15945
Emergency       	          	0.30751   	1737.28227
Emergency       	          	0.30851   	1749.424818
Emergency       	          	0.30951   	1761.587062
Emergency       	          	0.31051   	1773.768968
Emergency       	          	0.31151   	1785.970507
Emergency       	          	0.31251   	1798.191646
Emergency       	          	0.31351   	1810.432354
Emergency       	          	0.31451   	1822.692599
Emergency       	          	0.31551   	1834.972351
Emergency       	          	0.31651   	1847.271578
Emergency       	          	0.31751   	1859.590251
Emergency       	          	0.31851   	1871.928337
Emergency       	          	0.31951   	1884.285807
Emergency       	          	0.32051   	1896.662631
Emergency       	          	0.32151   	1909.058778
Emergency       	          	0.32251   	1921.474217
Emergency       	          	0.32351   	1933.90892
Emergency       	          	0.32451   	1946.362856
Emergency       	          	0.32551   	1958.835996
Emergency       	          	0.32651   	1971.32831
Emergency       	          	0.32751   	1983.839768
Emergency       	          	0.32851   	1996.370342
Emergency       	          	0.32951   	2008.920003
Emergency       	          	0.33051   	2021.488721
Emergency       	          	0.33151   	2034.076467
Emergency       	          	0.33251   	2046.683213
Emergency       	          	0.33351   	2059.308931
Emergency       	          	0.33451   	2071.953591
Emergency       	          	0.33551   	2084.617165
Emergency       	          	0.33651   	2097.299626
Emergency       	          	0.33751   	2110.000945
Emergency       	          	0.33851   	2122.721094
Emergency       	          	0.33951   	2135.460046
Emergency       	          	0.34051   	2148.217772
Emergency       	          	0.34151   	2160.994245
Emergency       	          	0.34251   	2173.789438
Emergency       	          	0.34351   	2186.603323
Emergency       	          	0.34451   	2199.435873
Emergency       	          	0.34551   	2212.287061
Emergency       	          	0.34651   	2225.156859
Emergency       	          	0.34751   	2238.045242
Emergency       	          	0.34851   	2250.952182
Emergency       	          	0.34951   	2263.877653
Emergency       	          	0.35051   	2276.821628
Emergency       	          	0.35151   	2289.78408
Emergency       	          	0.35251   	2302.764984
Emergency       	          	0.35351   	2315.764313
Emergency       	          	0.35451   	2328.782041
Emergency       	          	0.35551   	2341.818142
Emergency       	          	0.35651   	2354.872591
Emergency       	          	0.35751   	2367.945361
Emergency       	          	0.35851   	2381.036427
Emergency       	          	0.35951   	2394.145763
Emergency       	          	0.36051   	2407.273345
Emergency       	          	0.36151   	2420.419145
Emergency       	          	0.36251   	2433.583141
Emergency       	          	0.36351   	2446.765305
Emergency       	          	0.36451   	2459.965614
Emergency       	          	0.36551   	2473.184042
Emergency       	          	0.36651   	2486.420565
Emergency       	          	0.36751   	2499.675158
Emergency       	          	0.36851   	2512.947795
Emergency       	          	0.36951   	2526.238454
Emergency       	          	0.37051   	2539.547109
Emergency       	          	0.37151   	2552.873736
Emergency       	          	0.37251   	2566.218311
Emergency       	          	0.37351   	2579.58081
Emergency       	          	0.37451   	2592.961208
Emergency       	          	0.37551   	2606.359482
Emergency       	          	0.37651   	2619.775608
Emergency       	          	0.37751   	2633.209563
Emergency       	          	0.37851   	2646.661322
Emergency       	          	0.37951   	2660.130862
Emergency       	          	0.38051   	2673.61816
Emergency       	          	0.38151   	2687.123192
Emergency       	          	0.38251   	2700.645935
Emergency       	          	0.38351   	2714.186367
Emergency       	          	0.38451   	2727.744463
Emergency       	          	0.38551   	2741.3202 
Emergency       	          	0.38651   	2754.913557
Emergency       	          	0.38751   	2768.52451
Emergency       	          	0.38851   	2782.153036
Emergency       	          	0.38951   	2795.799114
Emergency       	          	0.39051   	2809.462719
Emergency       	          	0.39151   	2823.14383
Emergency       	          	0.39251   	2836.842425
Emergency       	          	0.39351   	2850.55848
Emergency       	          	0.39451   	2864.291975
Emergency       	          	0.39551   	2878.042886
Emergency       	          	0.39651   	2891.811192
Emergency       	          	0.39751   	2905.596871
Emergency       	          	0.39851   	2919.399901
Emergency       	          	0.39951   	2933.220261
Emergency       	          	0.40051   	2947.057927
Emergency       	          	0.40151   	2960.91288
Emergency       	          	0.40251   	2974.785097
Emergency       	          	0.40351   	2988.674556
Emergency       	          	0.40451   	3002.581238
Emergency       	          	0.40551   	3016.505119
Emergency       	          	0.40651   	3030.446179
Emergency       	          	0.40751   	3044.404397
Emergency       	          	0.40851   	3058.379752
Emergency       	          	0.40951   	3072.372223
Emergency       	          	0.41051   	3086.381788
Emergency       	          	0.41151   	3100.408428
Emergency       	          	0.41251   	3114.452121
Emergency       	          	0.41351   	3128.512846
Emergency       	          	0.41451   	3142.590583
Emergency       	          	0.41551   	3156.685312
Emergency       	          	0.41651   	3170.797012
Emergency       	          	0.41751   	3184.925662
Emergency       	          	0.41851   	3199.071243
Emergency       	          	0.41951   	3213.233733
Emergency       	          	0.42051   	3227.413114
Emergency       	          	0.42151   	3241.609364
Emergency       	          	0.42251   	3255.822464
Emergency       	          	0.42351   	3270.052394
Emergency       	          	0.42451   	3284.299134
Emergency       	          	0.42551   	3298.562664
Emergency       	          	0.42651   	3312.842964
Emergency       	          	0.42751   	3327.140015
Emergency       	          	0.42851   	3341.453797
Emergency       	          	0.42951   	3355.784291
Emergency       	          	0.43051   	3370.131477
Emergency       	          	0.43151   	3384.495335
Emergency       	          	0.43251   	3398.875847
Emergency       	          	0.43351   	3413.272993
Emergency       	          	0.43451   	3427.686754
Emergency       	          	0.43551   	3442.117111
Emergency       	          	0.43651   	3456.564044
Emergency       	          	0.43751   	3471.027535
Emergency       	          	0.43851   	3485.507565
Emergency       	          	0.43951   	3500.004115
Emergency       	          	0.44051   	3514.517166
Emergency       	          	0.44151   	3529.046699
Emergency       	          	0.44251   	3543.592696
Emergency       	          	0.44351   	3558.155138
Emergency       	          	0.44451   	3572.734006
Emergency       	          	0.44551   	3587.329283
Emergency       	          	0.44651   	3601.940949
Emergency       	          	0.44751   	3616.568987
Emergency       	          	0.44851   	3631.213377