[TITLE]
;;Project Title/Notes
Scenario Run :  RDIIANALYST

[OPTIONS]
;;Option             Value
FLOW_UNITS           LPS
INFILTRATION         GREEN_AMPT
FLOW_ROUTING         DYNWAVE
LINK_OFFSETS         DEPTH
MIN_SLOPE            0
ALLOW_PONDING        NO
SKIP_STEADY_STATE    NO

IGNORE_SNOWMELT      YES
IGNORE_GROUNDWATER   YES
START_DATE           01/01/2010
START_TIME           00:00:00
REPORT_START_DATE    01/01/2010
REPORT_START_TIME    00:00:00
END_DATE             01/31/2010
END_TIME             00:00:00
SWEEP_START          01/01
SWEEP_END            12/31
DRY_DAYS             5.000000
REPORT_STEP          01:00:00
WET_STEP             00:05:00
DRY_STEP             00:05:00
ROUTING_STEP         0:00:30 

INERTIAL_DAMPING     NONE
NORMAL_FLOW_LIMITED  BOTH
FORCE_MAIN_EQUATION  H-W
VARIABLE_STEP        0.75
LENGTHENING_STEP     10
MIN_SURFAREA         1.14
MAX_TRIALS           8
HEAD_TOLERANCE       0.000100
SYS_FLOW_TOL         5
LAT_FLOW_TOL         5
MINIMUM_STEP         0
THREADS              1

[EVAPORATION]
;;Data Source    Parameters
;;-------------- ----------------
MONTHLY          2.000000 2.000000 2.000000 2.000000 2.000000 2.000000 2.000000 2.000000 2.000000 2.000000 2.000000 2.000000
DRY_ONLY         NO

[TEMPERATURE]
;;Data Element     Values     
TIMESERIES         TEMPERATURE
WINDSPEED MONTHLY  3.000000 0.000000 5.000000 5.000000 5.000000 5.000000 5.000000 5.000000 5.000000 5.000000 5.000000 5.000000
SNOWMELT           1.000000 0.500000 0.600000 750.000000 60.500000 27.000000
ADC IMPERVIOUS     1.000000 1.000000 1.000000 1.000000 1.000000 1.000000 1.000000 1.000000 1.000000 1.000000
ADC PERVIOUS       1.000000 1.000000 1.000000 1.000000 1.000000 1.000000 1.000000 1.000000 1.000000 1.000000

[RAINGAGES]
;;Name           Format    Interval SCF      Source    
;;-------------- --------- ------ ------ ----------
;  July rainfall event
RAINGAGE-13      VOLUME    0.016667 1.000000 TIMESERIES 500-YEAR        

[SUBCATCHMENTS]
;;Name           Rain Gage        Outlet           Area     %Imperv  Width    %Slope   CurbLen  SnowPack        
;;-------------- ---------------- ---------------- -------- -------- -------- -------- -------- ----------------
;  C10
C10              RAINGAGE-13      117              9.702000 90.000000 325.049654 1.400000 0.000000 BORLÄNGE        
;  C13
C13              RAINGAGE-13      JCT-10           1.811000 89.000000 140.451920 0.800000 0.000000 BORLÄNGE        
;  C15
C15              RAINGAGE-13      232              10.672000 62.000000 328.712470 2.200000 0.000000 BORLÄNGE        
;  C20
C20              RAINGAGE-13      281              8.083000 44.000000 288.494164 2.700000 0.000000 BORLÄNGE        
;  C25
C25              RAINGAGE-13      1114             14.940000 34.000000 403.299258 2.300000 0.000000 BORLÄNGE        
;  C30
C30              RAINGAGE-13      384              6.748000 26.000000 271.084173 3.300000 0.000000 BORLÄNGE        
;  C33
C33              RAINGAGE-13      1115             7.161000 35.000000 279.247441 2.200000 0.000000 BORLÄNGE        
;  C35
C35              RAINGAGE-13      421              13.526000 40.000000 383.789195 1.100000 0.000000 BORLÄNGE        
;  C45
C45              RAINGAGE-13      1001             10.740000 35.000000 341.993235 1.100000 0.000000 BORLÄNGE        
;  C50
C50              RAINGAGE-13      387              19.176000 46.000000 456.972821 1.500000 0.000000 BORLÄNGE        
;  C55
C55              RAINGAGE-13      183              6.484000 48.000000 265.731753 3.000000 0.000000 BORLÄNGE        
;  C57
C57              RAINGAGE-13      267              12.870000 48.000000 374.368651 3.000000 0.000000 BORLÄNGE        
;  C60
C60              RAINGAGE-13      323              15.378000 54.000000 409.224110 1.600000 0.000000 BORLÄNGE        
;  C65
C65              RAINGAGE-13      257              6.275000 61.000000 261.415108 4.200000 0.000000 BORLÄNGE        
;  D10
D10              RAINGAGE-13      136              8.565000 79.000000 327.233363 1.200000 0.000000 BORLÄNGE        
;  D15
D15              RAINGAGE-13      31               6.019000 56.000000 256.029752 1.400000 0.000000 BORLÄNGE        
;  D20
D20              RAINGAGE-13      19               6.935000 54.000000 274.819935 3.300000 0.000000 BORLÄNGE        
;  D21
D21              RAINGAGE-13      7                15.026000 21.000000 404.520718 3.300000 0.000000 BORLÄNGE        
;  D22
D22              RAINGAGE-13      17               14.015000 25.000000 390.673417 1.300000 0.000000 BORLÄNGE        
;  D25
D25              RAINGAGE-13      32               5.716000 24.000000 249.500610 1.000000 0.000000 BORLÄNGE        
;  D30
D30              RAINGAGE-13      201              14.421000 23.000000 396.286550 0.200000 0.000000 BORLÄNGE        
;  D32
D32              RAINGAGE-13      956              3.329000 52.000000 190.392477 0.400000 0.000000 BORLÄNGE        
;  D35
D35              RAINGAGE-13      348              8.180000 24.000000 298.455625 1.100000 0.000000 BORLÄNGE        
;  D40
D40              RAINGAGE-13      269              10.247000 27.000000 334.115877 1.500000 0.000000 BORLÄNGE        
;  D45
D45              RAINGAGE-13      95               16.073000 34.000000 418.368719 1.500000 0.000000 BORLÄNGE        
;  D50
D50              RAINGAGE-13      187              8.512000 39.000000 303.017424 1.800000 0.000000 BORLÄNGE        
;  D55
D55              RAINGAGE-13      D45              7.050000 26.000000 277.086539 0.300000 0.000000 BORLÄNGE        
;  D60
D60              RAINGAGE-13      200              12.705000 25.000000 371.969610 1.200000 0.000000 BORLÄNGE        
;  D65
D65              RAINGAGE-13      209              8.684000 24.000000 307.525637 2.500000 0.000000 BORLÄNGE        
;  D70
D70              RAINGAGE-13      105              7.318000 44.000000 282.302832 1.600000 0.000000 BORLÄNGE        

[SUBAREAS]
;;Subcatchment   N-Imperv   N-Perv     S-Imperv   S-Perv     PctZero    RouteTo    PctRouted 
;;-------------- ---------- ---------- ---------- ---------- ---------- ---------- ----------
C10              0.020000   0.300000   0.100000   0.250000   25.000000  OUTLET    
C13              0.020000   0.300000   0.100000   0.250000   25.000000  OUTLET    
C15              0.020000   0.270000   0.100000   0.230000   25.000000  OUTLET    
C20              0.020000   0.230000   0.100000   0.210000   25.000000  OUTLET    
C25              0.020000   0.270000   0.100000   0.230000   25.000000  OUTLET    
C30              0.020000   0.290000   0.100000   0.250000   25.000000  OUTLET    
C33              0.020000   0.150000   0.100000   0.170000   25.000000  OUTLET    
C35              0.020000   0.240000   0.100000   0.220000   25.000000  OUTLET    
C45              0.020000   0.260000   0.100000   0.230000   25.000000  OUTLET    
C50              0.020000   0.260000   0.100000   0.230000   25.000000  OUTLET    
C55              0.020000   0.280000   0.100000   0.240000   25.000000  OUTLET    
C57              0.020000   0.280000   0.100000   0.240000   25.000000  OUTLET    
C60              0.020000   0.230000   0.100000   0.210000   25.000000  OUTLET    
C65              0.020000   0.270000   0.100000   0.230000   25.000000  OUTLET    
D10              0.020000   0.260000   0.100000   0.230000   25.000000  OUTLET    
D15              0.020000   0.290000   0.100000   0.250000   25.000000  OUTLET    
D20              0.020000   0.270000   0.100000   0.230000   25.000000  OUTLET    
D21              0.020000   0.260000   0.100000   0.230000   25.000000  OUTLET    
D22              0.020000   0.250000   0.100000   0.230000   25.000000  OUTLET    
D25              0.020000   0.250000   0.100000   0.220000   25.000000  OUTLET    
D30              0.020000   0.280000   0.100000   0.240000   25.000000  OUTLET    
D32              0.020000   0.280000   0.100000   0.240000   25.000000  OUTLET    
D35              0.020000   0.270000   0.100000   0.240000   25.000000  OUTLET    
D40              0.020000   0.250000   0.100000   0.220000   25.000000  OUTLET    
D45              0.020000   0.240000   0.100000   0.220000   25.000000  OUTLET    
D50              0.020000   0.240000   0.100000   0.220000   25.000000  OUTLET    
D55              0.020000   0.240000   0.100000   0.220000   25.000000  OUTLET    
D60              0.020000   0.250000   0.100000   0.220000   25.000000  OUTLET    
D65              0.020000   0.240000   0.100000   0.220000   25.000000  OUTLET    
D70              0.020000   0.250000   0.100000   0.230000   25.000000  OUTLET    

[INFILTRATION]
;;Subcatchment   Suction    Ksat       IMD       
;;-------------- ---------- ---------- ----------
C10              60.000000  10.000000  0.250000  
C13              60.000000  10.000000  0.250000  
C15              60.000000  10.000000  0.250000  
C20              60.000000  10.000000  0.250000  
C25              60.000000  10.000000  0.250000  
C30              60.000000  10.000000  0.250000  
C33              60.000000  10.000000  0.250000  
C35              60.000000  10.000000  0.250000  
C45              60.000000  10.000000  0.250000  
C50              60.000000  10.000000  0.250000  
C55              60.000000  10.000000  0.250000  
C57              60.000000  10.000000  0.250000  
C60              60.000000  10.000000  0.250000  
C65              60.000000  10.000000  0.250000  
D10              60.000000  10.000000  0.250000  
D15              60.000000  10.000000  0.250000  
D20              60.000000  10.000000  0.250000  
D21              60.000000  10.000000  0.250000  
D22              60.000000  10.000000  0.250000  
D25              60.000000  10.000000  0.250000  
D30              60.000000  10.000000  0.250000  
D32              60.000000  10.000000  0.250000  
D35              60.000000  10.000000  0.250000  
D40              60.000000  10.000000  0.250000  
D45              60.000000  10.000000  0.250000  
D50              60.000000  10.000000  0.250000  
D55              60.000000  10.000000  0.250000  
D60              60.000000  10.000000  0.250000  
D65              60.000000  10.000000  0.250000  
D70              60.000000  10.000000  0.250000  

[LID_CONTROLS]
;;Name           Type/Layer Parameters
;;-------------- ---------- ----------
TRENCH           IT
TRENCH           SURFACE    100.000000 0.100000   0.013000   1.000000   0.000000  
TRENCH           STORAGE    1000.000000 0.330000   9000.000000 0.000000  
TRENCH           DRAIN      1.000000   1.000000   10.000000  1.000000  

BIOCELL          BC
BIOCELL          SURFACE    100.000000 0.100000   0.013000   1.000000   0.000000  
BIOCELL          SOIL       1000.000000 0.330000   0.250000   0.150000   10.000000  1.000000   5.000000  
BIOCELL          STORAGE    1000.000000 0.330000   9000.000000 0.000000  
BIOCELL          DRAIN      1.000000   1.000000   1.000000   1.000000  

RAINB            RB
RAINB            STORAGE    1000.000000 0.250000   0.000000   0.000000  
RAINB            DRAIN      1.000000   1.000000   1.000000   1.000000  

VEGSWALE         PP
VEGSWALE         SURFACE    100.000000 0.330000   0.013000   1.000000   1.000000  
VEGSWALE         PAVEMENT   10.000000  0.150000   0.250000   1000.000000 0.000000  
VEGSWALE         STORAGE    1000.000000 0.330000   9000.000000 0.000000  
VEGSWALE         DRAIN      0.000000   1.000000   1.000000   1.000000  

GREENROOF        GR
GREENROOF        SURFACE    1000.000000 0.100000   0.013000   1.000000   0.000000  
GREENROOF        SOIL       500.000000 0.400000   0.300000   0.120000   5.000000   5.000000   5.000000  
GREENROOF        DRAINMAT   5.000000   0.500000   0.020000  

PP               PP
PP               SURFACE    100.000000 0.330000   0.013000   1.000000   1.000000  
PP               PAVEMENT   10.000000  0.150000   0.250000   1000.000000 0.000000  
PP               STORAGE    1000.000000 0.330000   9000.000000 0.000000  
PP               DRAIN      0.000000   1.000000   1.000000   1.000000  

[LID_USAGE]
;;Subcatchment   LID Process      Number  Area       Width      InitSat    FromImp    ToPerv     RptFile                  DrainTo         
;;-------------- ---------------- ------- ---------- ---------- ---------- ---------- ---------- ------------------------ ----------------

[AQUIFERS]
;;Name           Por    WP     FC     Ksat   Kslope Tslope ETu    ETs    Seep   Ebot   Egw    Umc    ETupat 
;;-------------- ------ ------ ------ ------ ------ ------ ------ ------ ------ ------ ------ ------ ------
AQUIFER-1        0.400000 0.150000 0.300000 5.000000 5.000000 5.000000 0.500000 10.000000 0.020000 0.000000 2.000000 0.250000 SEASONAL

[GROUNDWATER]
;;Subcatchment   Aquifer          Node             Esurf  A1     B1     A2     B2     A3     Dsw    Egwt   Ebot   Wgr    Umc   
;;-------------- ---------------- ---------------- ------ ------ ------ ------ ------ ------ ------ ------ ------ ------ ------
C10              AQUIFER-1        117              10.000000 0.001000 1.000000 0.000000 1.000000 0.000000 0.000000 1.000000 0.000000 2.000000 0.250000
C13              AQUIFER-1        JCT-10           10.000000 0.001000 1.000000 0.000000 1.000000 0.000000 0.000000 1.000000 0.000000 2.000000 0.250000
C15              AQUIFER-1        232              10.000000 0.001000 1.000000 0.000000 1.000000 0.000000 0.000000 1.000000 0.000000 2.000000 0.250000
C20              AQUIFER-1        281              10.000000 0.001000 1.000000 0.000000 1.000000 0.000000 0.000000 1.000000 0.000000 2.000000 0.250000
C25              AQUIFER-1        1114             10.000000 0.001000 1.000000 0.000000 1.000000 0.000000 0.000000 1.000000 0.000000 2.000000 0.250000
C30              AQUIFER-1        384              10.000000 0.001000 1.000000 0.000000 1.000000 0.000000 0.000000 1.000000 0.000000 2.000000 0.250000
C33              AQUIFER-1        1115             10.000000 0.001000 1.000000 0.000000 1.000000 0.000000 0.000000 1.000000 0.000000 2.000000 0.250000
C35              AQUIFER-1        421              10.000000 0.001000 1.000000 0.000000 1.000000 0.000000 0.000000 1.000000 0.000000 2.000000 0.250000
C45              AQUIFER-1        1001             10.000000 0.001000 1.000000 0.000000 1.000000 0.000000 0.000000 1.000000 0.000000 2.000000 0.250000
C50              AQUIFER-1        387              10.000000 0.001000 1.000000 0.000000 1.000000 0.000000 0.000000 1.000000 0.000000 2.000000 0.250000
C55              AQUIFER-1        183              10.000000 0.001000 1.000000 0.000000 1.000000 0.000000 0.000000 1.000000 0.000000 2.000000 0.250000
C57              AQUIFER-1        267              10.000000 0.001000 1.000000 0.000000 1.000000 0.000000 0.000000 1.000000 0.000000 2.000000 0.250000
C60              AQUIFER-1        323              10.000000 0.001000 1.000000 0.000000 1.000000 0.000000 0.000000 1.000000 0.000000 2.000000 0.250000
C65              AQUIFER-1        257              10.000000 0.001000 1.000000 0.000000 1.000000 0.000000 0.000000 1.000000 0.000000 2.000000 0.250000
D10              AQUIFER-1        136              10.000000 0.001000 1.000000 0.000000 1.000000 0.000000 0.000000 1.000000 0.000000 2.000000 0.250000
D15              AQUIFER-1        31               10.000000 0.001000 1.000000 0.000000 1.000000 0.000000 0.000000 1.000000 0.000000 2.000000 0.250000
D20              AQUIFER-1        19               10.000000 0.001000 1.000000 0.000000 1.000000 0.000000 0.000000 1.000000 0.000000 2.000000 0.250000
D21              AQUIFER-1        7                10.000000 0.001000 1.000000 0.000000 1.000000 0.000000 0.000000 1.000000 0.000000 2.000000 0.250000
D22              AQUIFER-1        17               10.000000 0.001000 1.000000 0.000000 1.000000 0.000000 0.000000 1.000000 0.000000 2.000000 0.250000
D25              AQUIFER-1        32               10.000000 0.001000 1.000000 0.000000 1.000000 0.000000 0.000000 1.000000 0.000000 2.000000 0.250000
D30              AQUIFER-1        201              10.000000 0.001000 1.000000 0.000000 1.000000 0.000000 0.000000 1.000000 0.000000 2.000000 0.250000
D32              AQUIFER-1        956              10.000000 0.001000 1.000000 0.000000 1.000000 0.000000 0.000000 1.000000 0.000000 2.000000 0.250000
D35              AQUIFER-1        348              10.000000 0.001000 1.000000 0.000000 1.000000 0.000000 0.000000 1.000000 0.000000 2.000000 0.250000
D40              AQUIFER-1        269              10.000000 0.001000 1.000000 0.000000 1.000000 0.000000 0.000000 1.000000 0.000000 2.000000 0.250000
D45              AQUIFER-1        95               10.000000 0.001000 1.000000 0.000000 1.000000 0.000000 0.000000 1.000000 0.000000 2.000000 0.250000
D50              AQUIFER-1        187              10.000000 0.001000 1.000000 0.000000 1.000000 0.000000 0.000000 1.000000 0.000000 2.000000 0.250000
D55              AQUIFER-1        46               10.000000 0.001000 1.000000 0.000000 1.000000 0.000000 0.000000 1.000000 0.000000 2.000000 0.250000
D60              AQUIFER-1        200              10.000000 0.001000 1.000000 0.000000 1.000000 0.000000 0.000000 1.000000 0.000000 2.000000 0.250000
D65              AQUIFER-1        209              10.000000 0.001000 1.000000 0.000000 1.000000 0.000000 0.000000 1.000000 0.000000 2.000000 0.250000
D70              AQUIFER-1        105              10.000000 0.001000 1.000000 0.000000 1.000000 0.000000 0.000000 1.000000 0.000000 2.000000 0.250000

[SNOWPACKS]
;;Name           Surface    Parameters
;;-------------- ---------- ----------
BORLÄNGE         PLOWABLE   0.000000   0.000000   0.000000   0.000000   0.000000   0.000000   0.000000  
BORLÄNGE         IMPERVIOUS 0.020000   0.030000   0.000000   0.100000   0.000000   0.000000   5.000000  
BORLÄNGE         PERVIOUS   0.020000   0.030000   0.000000   0.100000   0.000000   0.000000   5.000000  
BORLÄNGE         REMOVAL    5.000000   0.000000   0.000000   0.000000   1.000000   0.000000   

[JUNCTIONS]
;;Name           Elevation  MaxDepth   InitDepth  SurDepth   Aponded   
;;-------------- ---------- ---------- ---------- ---------- ----------
1001             216.086741 1.340993   0.000000   100.000000 0.000000  
105              206.893668 1.453744   0.000000   0.000000   0.000000  
13               210.121805 1.680746   0.000000   0.000000   0.000000  
136              202.731624 3.404591   0.000000   0.000000   0.000000  
137              210.460438 2.953426   0.000000   0.000000   0.000000  
140              203.081230 2.461586   0.000000   0.000000   0.000000  
144              203.105309 1.904899   0.000000   0.000000   0.000000  
147              209.256478 2.784614   0.000000   0.000000   0.000000  
15               209.661862 1.645969   0.000000   0.000000   0.000000  
150              207.809897 2.238626   0.000000   0.000000   0.000000  
158              204.236117 2.133634   0.000000   0.000000   0.000000  
166              204.238555 2.569413   0.000000   0.000000   0.000000  
173              204.223315 2.736707   0.000000   0.000000   0.000000  
179              203.849021 1.526910   0.000000   0.000000   0.000000  
18               211.696097 1.741113   0.000000   0.000000   0.000000  
183              204.505865 0.975290   0.000000   0.000000   0.000000  
19               204.787195 3.179159   0.000000   0.000000   0.000000  
200              210.041947 1.828842   0.000000   0.000000   0.000000  
201              211.494014 2.674306   0.000000   0.000000   0.000000  
205              202.622201 4.014167   0.000000   0.000000   0.000000  
209              204.536954 3.718478   0.000000   0.000000   0.000000  
232              204.645463 1.975783   0.000000   0.000000   0.000000  
244              206.817163 1.548239   0.000000   0.000000   0.000000  
25               205.389175 0.880387   0.000000   0.000000   0.000000  
255              203.897179 0.978553   0.000000   0.000000   0.000000  
257              204.377544 4.730580   0.000000   0.000000   0.000000  
26               202.840742 0.914370   0.000000   0.000000   0.000000  
260              204.960017 1.523900   0.000000   0.000000   0.000000  
261              205.015490 1.523862   0.000000   0.000000   0.000000  
267              212.370314 1.251924   0.000000   0.000000   0.000000  
269              203.346710 4.185044   0.000000   0.000000   0.000000  
276              207.403294 0.609783   0.000000   0.000000   0.000000  
281              204.970075 1.996981   0.000000   0.000000   0.000000  
285              207.708703 1.291038   0.000000   0.000000   0.000000  
297              205.447697 2.443111   0.000000   0.000000   0.000000  
304              205.683612 2.234540   0.000000   0.000000   0.000000  
306              207.247846 1.813754   0.000000   0.000000   0.000000  
31               204.721358 0.819978   0.000000   0.000000   0.000000  
32               212.706204 1.569827   0.000000   0.000000   0.000000  
323              206.849167 5.074829   0.000000   0.000000   0.000000  
325              206.386176 1.906259   0.000000   0.000000   0.000000  
33               211.501025 1.524106   0.000000   0.000000   0.000000  
333              206.299918 2.506646   0.000000   0.000000   0.000000  
348              208.077511 1.520939   0.000000   0.000000   0.000000  
351              205.932024 3.620878   0.000000   0.000000   0.000000  
371              212.463583 2.116785   0.000000   0.000000   0.000000  
384              207.601414 3.107158   0.000000   0.000000   0.000000  
387              211.515655 4.221421   0.000000   0.000000   0.000000  
393              209.803594 1.548380   0.000000   0.000000   0.000000  
4                210.707935 2.093945   0.000000   0.000000   0.000000  
407              215.908433 1.548400   0.000000   0.000000   0.000000  
46               209.478982 4.588248   0.000000   0.000000   0.000000  
56               208.858409 2.218923   0.000000   0.000000   0.000000  
64               209.840170 4.212259   0.000000   0.000000   0.000000  
7                205.589429 2.005450   0.000000   0.000000   0.000000  
74               202.989180 0.914491   0.000000   0.000000   0.000000  
76               209.949898 4.102531   0.000000   0.000000   0.000000  
77               203.439370 0.920432   0.000000   0.000000   0.000000  
879              212.568739 1.549562   0.000000   0.000000   0.000000  
882              211.067599 2.517789   0.000000   0.000000   0.000000  
893              214.177778 1.523897   0.000000   0.000000   0.000000  
894              214.966296 0.911359   0.000000   0.000000   0.000000  
95               211.584845 0.945016   0.000000   0.000000   0.000000  
956              211.643976 2.011694   0.000000   0.000000   0.000000  
974              205.956408 2.103895   0.000000   0.000000   0.000000  
982              205.996642 2.285951   0.000000   0.000000   0.000000  
;  New Junction
JCT-10           204.223315 2.886106   0.000000   0.000000   0.000000  
JCT-100          218.464181 1.219184   0.000000   0.000000   0.000000  
JCT-102          218.235276 0.909606   0.000000   0.000000   0.000000  
JCT-104          217.912798 1.776640   0.000000   0.000000   0.000000  
JCT-106          217.465656 2.135617   0.000000   0.000000   0.000000  
JCT-108          217.289482 1.201668   0.000000   0.000000   0.000000  
JCT-110          216.641782 1.165423   0.000000   0.000000   0.000000  
JCT-112          219.301466 1.244081   0.000000   0.000000   0.000000  
JCT-114          219.349320 1.219100   0.000000   0.000000   0.000000  
JCT-116          219.094202 1.219214   0.000000   0.000000   0.000000  
JCT-118          217.882927 1.215919   0.000000   0.000000   0.000000  
JCT-12           203.966978 4.090288   0.000000   0.000000   0.000000  
JCT-120          217.444320 1.881089   0.000000   0.000000   0.000000  
JCT-122          217.109040 2.035995   0.000000   0.000000   0.000000  
JCT-124          215.934341 1.231156   0.000000   0.000000   0.000000  
JCT-126          214.363097 1.232331   0.000000   0.000000   0.000000  
JCT-128          213.245090 1.020672   0.000000   0.000000   0.000000  
JCT-130          218.129815 1.219321   0.000000   0.000000   0.000000  
JCT-132          218.066722 1.219335   0.000000   0.000000   0.000000  
JCT-134          217.019429 1.219295   0.000000   0.000000   0.000000  
JCT-136          215.663069 1.220491   0.000000   0.000000   0.000000  
JCT-138          207.264000 9.639305   0.000000   0.000000   0.000000  
JCT-14           203.710642 8.749792   0.000000   0.000000   0.000000  
JCT-140          207.873600 9.292416   0.000000   0.000000   0.000000  
JCT-142          208.788000 7.606287   0.000000   50.000000  0.000000  
JCT-144          208.940400 5.251479   0.000000   0.000000   0.000000  
JCT-146          209.092800 6.831532   0.000000   0.000000   0.000000  
JCT-148          203.514960 12.644143  0.000000   0.000000   0.000000  
JCT-150          204.216000 14.096454  0.000000   0.000000   0.000000  
JCT-152          205.740000 10.557531  0.000000   0.000000   0.000000  
JCT-154          210.007200 2.130907   0.000000   0.000000   0.000000  
JCT-156          207.408780 1.219272   0.000000   50.000000  0.000000  
JCT-16           212.409024 1.202594   0.000000   0.000000   0.000000  
JCT-160          201.000000 3.620193   0.000000   0.000000   0.000000  
JCT-162          201.000000 3.448166   0.000000   0.000000   0.000000  
JCT-164          201.000000 2.755112   0.000000   0.000000   0.000000  
JCT-166          201.000000 0.650131   0.000000   0.000000   0.000000  
JCT-168          201.000000 0.108658   0.000000   0.000000   0.000000  
JCT-170          201.000000 1.924896   0.000000   0.000000   0.000000  
JCT-18           210.304380 1.219180   0.000000   0.000000   0.000000  
JCT-20           208.048555 1.219252   0.000000   0.000000   0.000000  
JCT-22           203.945642 4.364356   0.000000   0.000000   0.000000  
JCT-24           214.832794 1.219345   0.000000   0.000000   0.000000  
JCT-26           213.242042 1.186638   0.000000   0.000000   0.000000  
JCT-28           208.832501 1.219089   0.000000   0.000000   0.000000  
JCT-30           204.707642 3.127319   0.000000   0.000000   0.000000  
JCT-32           216.464083 1.438444   0.000000   0.000000   0.000000  
JCT-34           214.310976 1.222883   0.000000   0.000000   0.000000  
JCT-36           209.517691 1.267618   0.000000   0.000000   0.000000  
JCT-38           205.164842 1.880202   0.000000   0.000000   0.000000  
JCT-40           214.410341 1.219328   0.000000   0.000000   0.000000  
JCT-42           213.174072 1.219330   0.000000   0.000000   0.000000  
JCT-44           212.494673 3.047899   0.000000   0.000000   0.000000  
JCT-46           207.664507 1.226240   0.000000   0.000000   0.000000  
JCT-48           205.622042 1.219190   0.000000   0.000000   0.000000  
JCT-50           220.760849 1.270996   0.000000   0.000000   0.000000  
JCT-52           219.760800 4.081272   0.000000   0.000000   0.000000  
JCT-54           218.745511 1.087924   0.000000   0.000000   0.000000  
JCT-56           209.718859 1.219129   0.000000   0.000000   0.000000  
JCT-58           209.109259 1.828729   0.000000   0.000000   0.000000  
JCT-60           208.547513 2.462604   0.000000   0.000000   0.000000  
JCT-62           221.104663 1.219296   0.000000   0.000000   0.000000  
JCT-64           216.812774 1.126160   0.000000   0.000000   0.000000  
JCT-66           212.618726 1.219149   0.000000   0.000000   0.000000  
JCT-68           210.922210 1.230653   0.000000   0.000000   0.000000  
JCT-70           218.797937 1.219260   0.000000   0.000000   0.000000  
JCT-72           216.528701 1.219163   0.000000   0.000000   0.000000  
JCT-74           213.303002 1.234489   0.000000   0.000000   0.000000  
JCT-76           212.495892 1.217762   0.000000   0.000000   0.000000  
JCT-78           217.074598 1.263277   0.000000   0.000000   0.000000  
JCT-80           216.517118 1.196230   0.000000   0.000000   0.000000  
JCT-82           217.964614 1.219148   0.000000   0.000000   0.000000  
JCT-84           217.637563 1.122889   0.000000   0.000000   0.000000  
JCT-86           221.169586 1.312851   0.000000   0.000000   0.000000  
JCT-88           220.067124 1.298309   0.000000   0.000000   0.000000  
JCT-90           219.116148 1.243959   0.000000   0.000000   0.000000  
JCT-92           218.041728 1.219136   0.000000   0.000000   0.000000  
JCT-94           216.712800 2.733550   0.000000   0.000000   0.000000  
JCT-96           213.969600 4.498540   0.000000   0.000000   0.000000  
JCT-98           219.699230 1.253575   0.000000   0.000000   0.000000  
OVERLAND         211.000000 3.067230   0.000000   0.000000   0.000000  
OVERLANDNODE     212.000000 0.529861   0.000000   0.000000   0.000000  

[OUTFALLS]
;;Name           Elevation  Type       Stage Data       Gated    Route To        
;;-------------- ---------- ---------- ---------------- -------- ----------------
;  New Outfall
OFALL-10         207.264000 FREE                        NO                       
OFALL-12         201.777600 FREE                        NO                       
VIADUCT1         212.140800 FREE                        NO                       
VIADUCT2         210.921600 FREE                        NO                       

[STORAGE]
;;Name           Elev.    MaxDepth   InitDepth  Shape      Curve Name/Params            N/A      Fevap    Psi      Ksat     IMD     
;;-------------- -------- ---------- ----------- ---------- ---------------------------- -------- --------          -------- --------
1114             208.373472 0.744322   0.000000   TABULAR    1114                         0.000000 1.000000
1115             208.026000 3.150413   0.000000   TABULAR    1115                         0.000000 1.000000
117              203.240640 20.000000  0.000000   TABULAR    117                          0.000000 1.000000