[TITLE]
Scenario Run :  BASE
 FIGURE C1

[OPTIONS]
;Option and Files Scenario Set: BASE, Base Simulation Options
FLOW_UNITS	CFS
INFILTRATION	HORTON
FLOW_ROUTING	DYNWAVE
ALLOW_PONDING	NO
DRY_DAYS	5.000000
SKIP_STEADY_STATE 	NO
IGNORE_RAINFALL	NO
IGNORE_SNOWMELT	NO
IGNORE_GROUNDWATER	NO
IGNORE_QUALITY	NO
FORCE_MAIN_EQUATION	H-W
LINK_OFFSETS	DEPTH
MIN_SLOPE	0.000000
START_DATE	08/13/2012
START_TIME	00:00
END_DATE	08/16/2012
END_TIME	00:00
REPORT_START_DATE	08/13/2012
REPORT_START_TIME	00:00
SWEEP_START	01/01
SWEEP_END	12/31
WET_STEP	00:01:00
DRY_STEP	00:01:00
ROUTING_STEP	10
REPORT_STEP	00:05:00
INERTIAL_DAMPING	NONE
VARIABLE_STEP	0.750000
MINIMUM_STEP	0.5
LENGTHENING_STEP	0
MIN_SURFAREA	0.000000
NORMAL_FLOW_LIMITED	FROUDE
MAX_TRIALS	8
HEAD_TOLERANCE	0.000100

[FILES]

[RAINGAGES]
; Bismarck SCS Type II 6 hr storm
BISMARCK_SCS_II_6HR	CUMULATIVE	0.050000	1.000000	TIMESERIES	BISMARCK_SCS_II_6HR_100YR		

[HYDROGRAPHS]

[TEMPERATURE]

[ADJUSTMENTS]

[SUBCATCHMENTS]
3_4_A	BISMARCK_SCS_II_6HR	DEFACTO_PRIVATE_DR_S_OF_79TH	29.244817	0.000000	500.000000	0.500000	0.000000
3_4_B	BISMARCK_SCS_II_6HR	3-4C2	26.297325	0.000000	500.000000	0.500000	0.000000
3_4_C	BISMARCK_SCS_II_6HR	DEFACTO_N_OF_79TH_E_OF_PRIVDR	11.190461	0.000000	500.000000	0.500000	0.000000
3_4_D	BISMARCK_SCS_II_6HR	DET_BASIN_NRE_W_RIDGELAND_N	26.564060	0.000000	500.000000	0.500000	0.000000
3_4_E	BISMARCK_SCS_II_6HR	DET_BASIN_NRE_W_NWOOD_N	13.001451	0.000000	500.000000	0.500000	0.000000
3_4_F	BISMARCK_SCS_II_6HR	DET_BASIN_NRE_E_PROP_LINE	35.822017	0.000000	500.000000	0.500000	0.000000
3_4_G	BISMARCK_SCS_II_6HR	DEFACTO_SW_84TH_RIDGELAND	14.955185	0.000000	500.000000	0.500000	0.000000
3_4_H	BISMARCK_SCS_II_6HR	DEFACTO_PRIVATE_DR_N_OF_79TH_1	11.386912	0.000000	500.000000	0.500000	0.000000
3_4_I	BISMARCK_SCS_II_6HR	JCT-42	45.337919	0.000000	500.000000	0.500000	0.000000
3_4_J	BISMARCK_SCS_II_6HR	DEFACTO_W_OF_USH83_NE_OF_79TH	26.379683	0.000000	500.000000	0.500000	0.000000
3_4_K	BISMARCK_SCS_II_6HR	DEFACTO_N_OF_SNFLWR_W_OF_CRWAY	29.699556	0.000000	500.000000	0.500000	0.000000
3_4_L	BISMARCK_SCS_II_6HR	CRWAY_N_OF_84TH	18.963089	0.000000	500.000000	0.500000	0.000000
3_4_M	BISMARCK_SCS_II_6HR	DEFACTO_NE_84TH_RIDGELAND	34.236971	0.000000	500.000000	0.500000	0.000000
3_4_N	BISMARCK_SCS_II_6HR	DEFACTO_NE_SNFLWR_SAGE	15.734916	0.000000	500.000000	0.500000	0.000000
3_4_O	BISMARCK_SCS_II_6HR	DEFACTO_USH83_UPPER	158.641594	0.000000	500.000000	0.500000	0.000000
3_4_P	BISMARCK_SCS_II_6HR	DEFACTO_USH83_N_OF_1804	40.404763	0.000000	500.000000	0.500000	0.000000
3_4_Q	BISMARCK_SCS_II_6HR	DEFACTO_11TH	24.412856	0.000000	500.000000	0.500000	0.000000
3_4_R	BISMARCK_SCS_II_6HR	DEFACTO_W_OF_USH83_N_OF_11TH	12.179143	0.000000	500.000000	0.500000	0.000000
3_4_S	BISMARCK_SCS_II_6HR	DEFACTO_NW_84TH_RIDGELAND	5.043660	0.000000	500.000000	0.500000	0.000000
3_4_T	BISMARCK_SCS_II_6HR	DET_BASIN_NRE_N_PARKSIDE	7.879445	0.000000	500.000000	0.500000	0.000000
3_4_U	BISMARCK_SCS_II_6HR	DEFACTO_84TH_FENNEL	34.773569	0.000000	500.000000	0.500000	0.000000
3_4_V	BISMARCK_SCS_II_6HR	DEFACTO_E_OF_FENNEL_N_OF_84TH	17.628249	0.000000	500.000000	0.500000	0.000000
3_4_W	BISMARCK_SCS_II_6HR	DEFACTO_N_OF_SNFLWR_W_OF_SAGE	3.070261	0.000000	500.000000	0.500000	0.000000
3_4_X	BISMARCK_SCS_II_6HR	JCT-42	21.056164	0.000000	500.000000	0.500000	0.000000
3_4_Y	BISMARCK_SCS_II_6HR	DEFACTO_79TH_PRIVETE_DR	7.747093	0.000000	500.000000	0.500000	0.000000
3_5_A	BISMARCK_SCS_II_6HR	DEFACTO_1804_W_OF_USH83	84.603028	0.000000	500.000000	0.500000	0.000000
3_5_B	BISMARCK_SCS_II_6HR	DET_BASIN_NRE_W_RIDGELAND_S	33.780786	0.000000	500.000000	0.500000	0.000000
3_5_C	BISMARCK_SCS_II_6HR	DET_BASIN_NRE_W_NWOOD_S	15.964393	0.000000	500.000000	0.500000	0.000000
3_5_D	BISMARCK_SCS_II_6HR	DET_BASIN_NRE_W_NWOOD_CENT	32.348299	0.000000	500.000000	0.500000	0.000000
3_5_E	BISMARCK_SCS_II_6HR	DET_BASIN_NRE_INLINE	14.971090	0.000000	500.000000	0.500000	0.000000
3_5_F	BISMARCK_SCS_II_6HR	DET_BASIN_NRE_W_RIDGELAND_S	41.717986	0.000000	500.000000	0.500000	0.000000
3_5_G	BISMARCK_SCS_II_6HR	JCT-68	85.387223	0.000000	500.000000	0.500000	0.000000
3_5_H	BISMARCK_SCS_II_6HR	DET_BASIN_NRE_W_NWOOD_CENT	90.078242	0.000000	500.000000	0.500000	0.000000
3_5_I	BISMARCK_SCS_II_6HR	DET_BASIN_NRE_W_NWOOD_CENT	75.196381	0.000000	500.000000	0.500000	0.000000
3_5_J	BISMARCK_SCS_II_6HR	DEFACTO_W_OF_WASH_N_OF_RDGLND_LP	11.173397	0.000000	500.000000	0.500000	0.000000
3_5_K	BISMARCK_SCS_II_6HR	DEFACTO_S_OF_RDGLND_LP_E_OF_WASH	4.694307	0.000000	500.000000	0.500000	0.000000
3_6_A	BISMARCK_SCS_II_6HR	DEFACTO_W_OF_WASH_S_OF_1804	92.147970	0.000000	500.000000	0.500000	0.000000
3_6_B	BISMARCK_SCS_II_6HR	1804_W_OF_WASH	38.880882	0.000000	500.000000	0.500000	0.000000
3_6_C	BISMARCK_SCS_II_6HR	NODE71.2.1	150.307775	0.000000	500.000000	0.500000	0.000000
3_6_D	BISMARCK_SCS_II_6HR	NODE72	45.488367	0.000000	500.000000	0.500000	0.000000
3_6_E	BISMARCK_SCS_II_6HR	DEFACTO_E_OF_WASH_N_OF_1804	8.691637	0.000000	500.000000	0.500000	0.000000
3_6_F	BISMARCK_SCS_II_6HR	NODE76.2	59.588720	0.000000	500.000000	0.500000	0.000000
3_6_G	BISMARCK_SCS_II_6HR	NODE76.1.1	118.222051	0.000000	500.000000	0.500000	0.000000
3_6_H	BISMARCK_SCS_II_6HR	NODE70.2	46.285020	0.000000	500.000000	0.500000	0.000000
3_6_I	BISMARCK_SCS_II_6HR	NODE70.1.1	85.405110	0.000000	500.000000	0.500000	0.000000
3_6_J	BISMARCK_SCS_II_6HR	NODE71.1.1	74.079989	0.000000	500.000000	0.500000	0.000000
OUTSIDE_A	BISMARCK_SCS_II_6HR	JCT-138	35.908869	0.000000	500.000000	0.500000	0.000000
OUTSIDE_B	BISMARCK_SCS_II_6HR	JCT-138	14.477743	0.000000	500.000000	0.500000	0.000000

[SUBAREAS]
3_4_A	0.100000	0.001000	0.050000	0.050000	25.000000	OUTLET
3_4_B	0.100000	0.001000	0.050000	0.050000	25.000000	OUTLET
3_4_C	0.100000	0.001000	0.050000	0.050000	25.000000	OUTLET
3_4_D	0.100000	0.001000	0.050000	0.050000	25.000000	OUTLET
3_4_E	0.100000	0.001000	0.050000	0.050000	25.000000	OUTLET
3_4_F	0.100000	0.001000	0.050000	0.050000	25.000000	OUTLET
3_4_G	0.100000	0.001000	0.050000	0.050000	25.000000	OUTLET
3_4_H	0.100000	0.001000	0.050000	0.050000	25.000000	OUTLET
3_4_I	0.100000	0.001000	0.050000	0.050000	25.000000	OUTLET
3_4_J	0.100000	0.001000	0.050000	0.050000	25.000000	OUTLET
3_4_K	0.100000	0.001000	0.050000	0.050000	25.000000	OUTLET
3_4_L	0.100000	0.001000	0.050000	0.050000	25.000000	OUTLET
3_4_M	0.100000	0.001000	0.050000	0.050000	25.000000	OUTLET
3_4_N	0.100000	0.001000	0.050000	0.050000	25.000000	OUTLET
3_4_O	0.100000	0.001000	0.050000	0.050000	25.000000	OUTLET
3_4_P	0.100000	0.001000	0.050000	0.050000	25.000000	OUTLET
3_4_Q	0.100000	0.001000	0.050000	0.050000	25.000000	OUTLET
3_4_R	0.100000	0.001000	0.050000	0.050000	25.000000	OUTLET
3_4_S	0.100000	0.001000	0.050000	0.050000	25.000000	OUTLET
3_4_T	0.100000	0.001000	0.050000	0.050000	25.000000	OUTLET
3_4_U	0.100000	0.001000	0.050000	0.050000	25.000000	OUTLET
3_4_V	0.100000	0.001000	0.050000	0.050000	25.000000	OUTLET
3_4_W	0.100000	0.001000	0.050000	0.050000	25.000000	OUTLET
3_4_X	0.100000	0.001000	0.050000	0.050000	25.000000	OUTLET
3_4_Y	0.100000	0.001000	0.050000	0.050000	25.000000	OUTLET
3_5_A	0.100000	0.001000	0.050000	0.050000	25.000000	OUTLET
3_5_B	0.100000	0.001000	0.050000	0.050000	25.000000	OUTLET
3_5_C	0.100000	0.001000	0.050000	0.050000	25.000000	OUTLET
3_5_D	0.100000	0.001000	0.050000	0.050000	25.000000	OUTLET
3_5_E	0.100000	0.001000	0.050000	0.050000	25.000000	OUTLET
3_5_F	0.100000	0.001000	0.050000	0.050000	25.000000	OUTLET
3_5_G	0.100000	0.001000	0.050000	0.050000	25.000000	OUTLET
3_5_H	0.100000	0.001000	0.050000	0.050000	25.000000	OUTLET
3_5_I	0.100000	0.001000	0.050000	0.050000	25.000000	OUTLET
3_5_J	0.100000	0.001000	0.050000	0.050000	25.000000	OUTLET
3_5_K	0.100000	0.001000	0.050000	0.050000	25.000000	OUTLET
3_6_A	0.100000	0.001000	0.050000	0.050000	25.000000	OUTLET
3_6_B	0.100000	0.001000	0.050000	0.050000	25.000000	OUTLET
3_6_C	0.100000	0.001000	0.050000	0.050000	25.000000	OUTLET
3_6_D	0.100000	0.001000	0.050000	0.050000	25.000000	OUTLET
3_6_E	0.100000	0.001000	0.050000	0.050000	25.000000	OUTLET
3_6_F	0.100000	0.001000	0.050000	0.050000	25.000000	OUTLET
3_6_G	0.100000	0.001000	0.050000	0.050000	25.000000	OUTLET
3_6_H	0.100000	0.001000	0.050000	0.050000	25.000000	OUTLET
3_6_I	0.100000	0.001000	0.050000	0.050000	25.000000	OUTLET
3_6_J	0.100000	0.001000	0.050000	0.050000	25.000000	OUTLET
OUTSIDE_A	0.100000	0.001000	0.050000	0.050000	25.000000	OUTLET
OUTSIDE_B	0.100000	0.001000	0.050000	0.050000	25.000000	OUTLET

[INFILTRATION]
3_4_A	2.000000	0.260000	4.000000	7.000000	0.000000
3_4_B	2.000000	0.260000	4.000000	7.000000	0.000000
3_4_C	2.000000	0.260000	4.000000	7.000000	0.000000
3_4_D	2.000000	0.260000	4.000000	7.000000	0.000000
3_4_E	2.000000	0.260000	4.000000	7.000000	0.000000
3_4_F	2.000000	0.260000	4.000000	7.000000	0.000000
3_4_G	2.000000	0.260000	4.000000	7.000000	0.000000
3_4_H	2.000000	0.260000	4.000000	7.000000	0.000000
3_4_I	2.000000	0.260000	4.000000	7.000000	0.000000
3_4_J	2.000000	0.260000	4.000000	7.000000	0.000000
3_4_K	2.000000	0.260000	4.000000	7.000000	0.000000
3_4_L	2.000000	0.260000	4.000000	7.000000	0.000000
3_4_M	2.000000	0.260000	4.000000	7.000000	0.000000
3_4_N	2.000000	0.260000	4.000000	7.000000	0.000000
3_4_O	2.000000	0.260000	4.000000	7.000000	0.000000
3_4_P	2.000000	0.260000	4.000000	7.000000	0.000000
3_4_Q	2.000000	0.260000	4.000000	7.000000	0.000000
3_4_R	2.000000	0.260000	4.000000	7.000000	0.000000
3_4_S	2.000000	0.260000	4.000000	7.000000	0.000000
3_4_T	2.000000	0.260000	4.000000	7.000000	0.000000
3_4_U	2.000000	0.260000	4.000000	7.000000	0.000000
3_4_V	2.000000	0.260000	4.000000	7.000000	0.000000
3_4_W	2.000000	0.260000	4.000000	7.000000	0.000000
3_4_X	2.000000	0.260000	4.000000	7.000000	0.000000
3_4_Y	2.000000	0.260000	4.000000	7.000000	0.000000
3_5_A	2.000000	0.260000	4.000000	7.000000	0.000000
3_5_B	2.000000	0.260000	4.000000	7.000000	0.000000
3_5_C	2.000000	0.260000	4.000000	7.000000	0.000000
3_5_D	2.000000	0.260000	4.000000	7.000000	0.000000
3_5_E	2.000000	0.260000	4.000000	7.000000	0.000000
3_5_F	2.000000	0.260000	4.000000	7.000000	0.000000
3_5_G	2.000000	0.260000	4.000000	7.000000	0.000000
3_5_H	2.000000	0.260000	4.000000	7.000000	0.000000
3_5_I	2.000000	0.260000	4.000000	7.000000	0.000000
3_5_J	2.000000	0.260000	4.000000	7.000000	0.000000
3_5_K	2.000000	0.260000	4.000000	7.000000	0.000000
3_6_A	2.000000	0.260000	4.000000	7.000000	0.000000
3_6_B	2.000000	0.260000	4.000000	7.000000	0.000000
3_6_C	2.000000	0.260000	4.000000	7.000000	0.000000
3_6_D	2.000000	0.260000	4.000000	7.000000	0.000000
3_6_E	2.000000	0.260000	4.000000	7.000000	0.000000
3_6_F	2.000000	0.260000	4.000000	7.000000	0.000000
3_6_G	2.000000	0.260000	4.000000	7.000000	0.000000
3_6_H	2.000000	0.260000	4.000000	7.000000	0.000000
3_6_I	2.000000	0.260000	4.000000	7.000000	0.000000
3_6_J	2.000000	0.260000	4.000000	7.000000	0.000000
OUTSIDE_A	2.000000	0.260000	4.000000	7.000000	0.000000
OUTSIDE_B	2.000000	0.260000	4.000000	7.000000	0.000000

[AQUIFERS]

[GROUNDWATER]

[GWF]

[SNOWPACKS]

[JUNCTIONS]
; de facto det N of 1804 and W of Wash
1804_W_OF_WASH	1887.050000	30.000000	0.000000	0.000000	0.000000
3-4C2	1843.480000	30.000000	0.000000	0.000000	0.000000
; Upstream of Caraway N of 84th
CRWAY_N_OF_84TH	1900.580000	30.000000	0.000000	0.000000	0.000000
; Upstream of western driveway N of 79th
DRIVEWAY_N_OF_79TH_1	1861.110000	30.000000	0.000000	0.000000	0.000000
; Upstream of western driveway S 79th
DRIVEWAY_WESTERN_S_OF_79TH	1859.400000	30.000000	0.000000	0.000000	0.000000
; New Junction
JCT-102	1886.720000	30.000000	0.000000	0.000000	0.000000
; New Junction
JCT-104	1884.740000	30.000000	0.000000	0.000000	0.000000
; New Junction
JCT-106	1902.880000	30.000000	0.000000	0.000000	0.000000
; New Junction
JCT-108	1903.950000	30.000000	0.000000	0.000000	0.000000
; New Junction
JCT-110	1898.940000	30.000000	0.000000	0.000000	0.000000
; New Junction
JCT-116	1860.700000	30.000000	0.000000	0.000000	0.000000
; New Junction
JCT-118	1859.100000	30.000000	0.000000	0.000000	0.000000
; New Junction
JCT-120	1862.900000	30.000000	0.000000	0.000000	0.000000
; New Junction
JCT-122	1907.120000	30.000000	0.000000	0.000000	0.000000
; New Junction
JCT-124	1907.360000	30.000000	0.000000	0.000000	0.000000
; New Junction
JCT-126	1912.570000	30.000000	0.000000	0.000000	0.000000
; New Junction
JCT-128	1900.040000	30.000000	0.000000	0.000000	0.000000
; New Junction
JCT-130	1882.180000	30.000000	0.000000	0.000000	0.000000
; New Junction
JCT-132	1861.450000	30.000000	0.000000	0.000000	0.000000
; New Junction
JCT-134	1850.090000	30.000000	0.000000	0.000000	0.000000
; New Junction
JCT-136	1844.100000	30.000000	0.000000	0.000000	0.000000
; New Junction
JCT-138	1788.420000	30.000000	0.000000	0.000000	0.000000
; New Junction
JCT-140	1792.230000	30.000000	0.000000	0.000000	0.000000
; New Junction
JCT-142	1796.110000	30.000000	0.000000	0.000000	0.000000
; New Junction
JCT-144	1797.540000	30.000000	0.000000	0.000000	0.000000
; New Junction
JCT-146	1804.850000	30.000000	0.000000	0.000000	0.000000
; New Junction
JCT-148	1839.810000	30.000000	0.000000	0.000000	0.000000
JCT-24	1879.850000	30.000000	0.000000	0.000000	0.000000
JCT-28	1873.430000	30.000000	0.000000	0.000000	0.000000
JCT-34	1902.010000	30.000000	0.000000	0.000000	0.000000
JCT-38	1885.070000	30.000000	0.000000	0.000000	0.000000
; New Junction
JCT-40	1882.970000	30.000000	0.000000	0.000000	0.000000
; New Junction
JCT-42	1869.100000	30.000000	0.000000	0.000000	0.000000
JCT-46	1886.970000	30.000000	0.000000	0.000000	0.000000
JCT-50	1886.780000	30.000000	0.000000	0.000000	0.000000
; New Junction
JCT-56	1858.430000	30.000000	0.000000	0.000000	0.000000
; New Junction
JCT-60	1861.820000	30.000000	0.000000	0.000000	0.000000
; New Junction
JCT-64	1860.850000	30.000000	0.000000	0.000000	0.000000
; New Junction
JCT-68	1843.340000	30.000000	0.000000	0.000000	0.000000
JCT-72	1876.880000	30.000000	0.000000	0.000000	0.000000
; New Junction
JCT-80	1857.300000	30.000000	0.000000	0.000000	0.000000
NODE1071	1801.560000	30.000000	0.000000	0.000000	0.000000
NODE62	1880.160000	30.000000	0.000000	0.000000	0.000000
NODE64	1858.960000	30.000000	0.000000	0.000000	0.000000
NODE68	1832.290000	30.000000	0.000000	0.000000	0.000000
NODE70	1829.240000	30.000000	0.000000	0.000000	0.000000
NODE70.1	1820.000000	30.000000	0.000000	0.000000	0.000000
NODE70.1.1	1815.110000	30.000000	0.000000	0.000000	0.000000
NODE70.2	1826.490000	30.000000	0.000000	0.000000	0.000000
NODE71	1812.250000	30.000000	0.000000	0.000000	0.000000
NODE71.1	1805.820000	30.000000	0.000000	0.000000	0.000000
NODE71.1.1	1802.980000	30.000000	0.000000	0.000000	0.000000
NODE71.1.2	1805.320000	30.000000	0.000000	0.000000	0.000000
NODE71.2	1809.270000	30.000000	0.000000	0.000000	0.000000
NODE71.2.1	1807.560000	30.000000	0.000000	0.000000	0.000000
NODE71.3	1809.940000	30.000000	0.000000	0.000000	0.000000
NODE72	1798.680000	30.000000	0.000000	0.000000	0.000000
NODE73	1797.820000	30.000000	0.000000	0.000000	0.000000
NODE73.1	1792.900000	30.000000	0.000000	0.000000	0.000000
NODE76	1866.270000	30.000000	0.000000	0.000000	0.000000
NODE76.1	1839.340000	30.000000	0.000000	0.000000	0.000000
NODE76.1.1	1825.840000	30.000000	0.000000	0.000000	0.000000
NODE76.2	1852.850000	30.000000	0.000000	0.000000	0.000000
NODE79	1873.580000	30.000000	0.000000	0.000000	0.000000
NODE80	1865.870000	30.000000	0.000000	0.000000	0.000000
NODE82	1856.280000	30.000000	0.000000	0.000000	0.000000
NODE85	1850.380000	30.000000	0.000000	0.000000	0.000000

[OUTFALLS]
NODE74	1786.840000	FREE	NO

[DIVIDERS]

[STORAGE]
; de facto det NW of 11th St
DEFACTO_11TH	1851.800000	30.000000	0.000000	TABULAR	DE_FACTO_11TH	0.000000	0.000000
; de facto det N of 1804 and W of USH83
DEFACTO_1804_W_OF_USH83	1829.720000	30.000000	0.000000	TABULAR	DE_FACTO_1804	0.000000	0.000000
; de facto det N of 79th near private drives
DEFACTO_79TH_PRIVETE_DR	1859.800000	30.000000	0.000000	TABULAR	DE_FACTO_79TH_PRIVATE_DR	0.000000	0.000000
; de facto det N of 84th and W of Fennel
DEFACTO_84TH_FENNEL	1880.750000	30.000000	0.000000	TABULAR	DE_FACTO_N_OF_84TH_W_OF_FENNEL	0.000000	0.000000
; de facto det E of Fennel and N of 84th
DEFACTO_E_OF_FENNEL_N_OF_84TH	1882.550000	30.000000	0.000000	TABULAR	DE_FACTO_E_OF_FENNEL_N_OF_84TH	0.000000	0.000000
; de facto det E of Wash and N of 1804
DEFACTO_E_OF_WASH_N_OF_1804	1887.500000	30.000000	0.000000	TABULAR	DE_FACTO_E_OF_WASH_N_OF_1804	0.000000	0.000000
; de facto det NE corner of 84th and Ridgeland
DEFACTO_NE_84TH_RIDGELAND	1883.020000	30.000000	0.000000	TABULAR	DE_FACTO_NE_84TH_RIDGELAND	0.000000	0.000000
; de facto det NE of Sunflower Sage intersection
DEFACTO_NE_SNFLWR_SAGE	1908.540000	30.000000	0.000000	TABULAR	DE_FACTO_NE_SNFLWR_SAGE	0.000000	0.000000
; de facto det NW corner of 84th and Ridgeland
DEFACTO_NW_84TH_RIDGELAND	1887.600000	30.000000	0.000000	TABULAR	DE_FACTO_NW_84TH_RIDGELAND	0.000000	0.000000
; de facto det N of 79th and E of Private Dr
DEFACTO_N_OF_79TH_E_OF_PRIVDR	1863.440000	30.000000	0.000000	TABULAR	DE_FACTO_N_OF_79TH_E_OF_PRIVDR	0.000000	0.000000
; de facto det N of Sunflower and W of Caraway
DEFACTO_N_OF_SNFLWR_W_OF_CRWAY	1913.080000	30.000000	0.000000	TABULAR	DE_FACTO_N_OF_SNFLWR_W_OF_CRWAY	0.000000	0.000000
; de facto det N of Sunflower and W of Sage
DEFACTO_N_OF_SNFLWR_W_OF_SAGE	1907.620000	30.000000	0.000000	TABULAR	DE_FACTO_N_OF_SNFLWR_W_OF_SAGE	0.000000	0.000000
; de facto det W of Private Dr and N of 79th (cloest to 79th)
DEFACTO_PRIVATE_DR_N_OF_79TH_1	1861.200000	30.000000	0.000000	TABULAR	DE_FACTO_PRIVATE_DR_N_OF_79TH_1	0.000000	0.000000
; de facto det N of Private Dr and N of 79th (farther fro
DEFACTO_PRIVATE_DR_N_OF_79TH_2	1861.670000	30.000000	0.000000	TABULAR	DE_FACTO_PRIVATE_DR_N_OF_79TH_2	0.000000	0.000000
; New Junction
DEFACTO_PRIVATE_DR_S_OF_79TH	1858.310000	30.000000	0.000000	TABULAR	DE_FACTO_PRIVATE_DR_S_OF_79TH	0.000000	0.000000
; de facto det SW corner of 84th and Ridgeland
DEFACTO_SW_84TH_RIDGELAND	1887.900000	30.000000	0.000000	TABULAR	DE_FACTO_SW_84TH_RIDGELAND	0.000000	0.000000
; de facto det S of Ridgeland Lp and E of Wash
DEFACTO_S_OF_RDGLND_LP_E_OF_WASH	1905.390000	30.000000	0.000000	TABULAR	DE_FACTO_S_OF_RDGLND_LP	0.000000	0.000000
; de facto det E of USH83 and N of 1804 (lower area)
DEFACTO_USH83_N_OF_1804	1832.770000	30.000000	0.000000	TABULAR	DE_FACTO_USH83_N_OF_1804	0.000000	0.000000
; de facto det near USH 83 (upper larger area)
DEFACTO_USH83_UPPER	1834.000000	30.000000	0.000000	TABULAR	DE_FACTO_USH83_UPPER	0.000000	0.000000
; de facto det W of Driveway and N of Ridgeland Lp
DEFACTO_W_OF_DRIV_ON_RDGLND_LP	1900.120000	30.000000	0.000000	TABULAR	DE_FACTO_PRIVATE_DR_ON_RGDLND_LP	0.000000	0.000000
; de facto det W of USH83 and NE of 79th
DEFACTO_W_OF_USH83_NE_OF_79TH	1863.410000	30.000000	0.000000	TABULAR	DE_FACTO_W_OF_USH83_NE_OF_79TH	0.000000	0.000000
; de facto det W of USH83 and N of 11th
DEFACTO_W_OF_USH83_N_OF_11TH	1852.020000	30.000000	0.000000	TABULAR	DE_FACTO_W_OF_USH83_N_OF_11TH	0.000000	0.000000
; de facto det W of Wash and Ridgeland Lp
DEFACTO_W_OF_WASH_N_OF_RDGLND_LP	1904.650000	30.000000	0.000000	TABULAR	DE_FACTO_W_OF_WASH_RDGLND_LP	0.000000	0.000000
; de facto det W of Wash and S of 1804
DEFACTO_W_OF_WASH_S_OF_1804	1866.590000	30.000000	0.000000	TABULAR	DE_FACTO_W_OF_WASH_S_OF_1804	0.000000	0.000000
; East Property Line Det Basin in N Ridge Est
DET_BASIN_NRE_E_PROP_LINE	1873.730000	30.000000	0.000000	TABULAR	DETBASIN_NRE_E_PROP_LINE	0.000000	0.000000
; Inline Det Basin in N Ridge Est
DET_BASIN_NRE_INLINE	1866.410000	30.000000	0.000000	TABULAR	DETBASIN_NRE_INLINE	0.000000	0.000000
; Parkside Det Basin in N Ridge Est
DET_BASIN_NRE_N_PARKSIDE	1880.040000	30.000000	0.000000	TABULAR	DETBASIN_NRE_N_PARKSIDE	0.000000	0.000000
; Northwood Central Det Basin in N Ridge Est
DET_BASIN_NRE_W_NWOOD_CENT	1874.220000	30.000000	0.000000	TABULAR	DETBASIN_NRE_W_NWOOD_CENT	0.000000	0.000000
; Northwood North Det Basin in N Ridge Est
DET_BASIN_NRE_W_NWOOD_N	1902.230000	30.000000	0.000000	TABULAR	DETBASIN_NRE_W_NWOOD_N	0.000000	0.000000
; Northwood South Det Basin in N Ridge Est
DET_BASIN_NRE_W_NWOOD_S	1877.890000	30.000000	0.000000	TABULAR	DETBASIN_NRE_W_NWOOD_S	0.000000	0.000000
; Ridgeland North Det Basin in N Ridge Est
DET_BASIN_NRE_W_RIDGELAND_N	1885.490000	30.000000	0.000000	TABULAR	DETBASIN_NRE_W_RIDGELAND_N	0.000000	0.000000
; Ridgeland South Det Basin in N Ridge Est
DET_BASIN_NRE_W_RIDGELAND_S	1857.270000	30.000000	0.000000	TABULAR	DETBASIN_NRE_W_RIDGELAND_S	0.000000	0.000000

[CONDUITS]
; Culv under 11th Street
11TH_CULV	DEFACTO_11TH	NODE85	67.000000	0.024000	0.000000	0.000000	0.000000	0.000000
; Culv2 under 11th Street
11TH_CULV2	DEFACTO_11TH	NODE85	67.000000	0.024000	0.130000	0.180000	0.000000	0.000000
; Culv3 under 11th Street
11TH_CULV3	DEFACTO_11TH	NODE85	67.000000	0.024000	0.200000	0.440000	0.000000	0.000000
1804_W_USH83_CULV	DEFACTO_1804_W_OF_USH83	NODE70	125.000000	0.014000	0.460000	0.180000	0.000000	0.000000
1804_W_USH83_CULV2	DEFACTO_1804_W_OF_USH83	NODE70	133.000000	0.014000	0.000000	0.300000	0.000000	0.000000
1804_W_USH83_CULV3	DEFACTO_1804_W_OF_USH83	NODE70	135.000000	0.014000	0.090000	0.510000	0.000000	0.000000
1804_W_USH83_CULV4	DEFACTO_1804_W_OF_USH83	NODE70	141.000000	0.014000	0.480000	0.000000	0.000000	0.000000
; Culv under 1804 W of Wash
1804_W_WASH_CULV	1804_W_OF_WASH	JCT-104	58.000000	0.014000	0.000000	0.000000	0.000000	0.000000
; Culv under 79th E of Private Drives
79TH_E_PRIVATE_DR_CULV	DEFACTO_N_OF_79TH_E_OF_PRIVDR	JCT-120	37.000000	0.014000	0.000000	0.000000	0.000000	0.000000
; culv under 79th near private drives
79TH_NEAR_PRIV_DR_CULV	DEFACTO_79TH_PRIVETE_DR	NODE64	30.000000	0.024000	0.000000	0.000000	0.000000	0.000000
; culv2 under 79th near private drives
79TH_NEAR_PRIV_DR_CULV2	DEFACTO_79TH_PRIVETE_DR	NODE64	30.000000	0.024000	0.190000	0.550000	0.000000	0.000000
; culv3 under 79th near private drives
79TH_NEAR_PRIV_DR_CULV3	DEFACTO_79TH_PRIVETE_DR	NODE64	32.000000	0.024000	0.290000	0.560000	0.000000	0.000000
; Culv under 79th W of driveways
79TH_W_DRIVEWAYS_CULV	DEFACTO_PRIVATE_DR_N_OF_79TH_1	JCT-116	40.000000	0.014000	0.000000	0.000000	0.000000	0.000000
; Culv under 84th E of Ridgeland
84TH_E_RIDGELAND_CULV	DEFACTO_NE_84TH_RIDGELAND	JCT-40	60.000000	0.024000	0.000000	0.000000	0.000000	0.000000
; Culv under 84th W of Fennel
84TH_W_FENNEL_CULV	DEFACTO_84TH_FENNEL	NODE62	60.000000	0.024000	0.000000	0.000000	0.000000	0.000000
; New Conduit
CDT-101	JCT-122	DEFACTO_NE_84TH_RIDGELAND	1745.000000	0.050000	0.000000	0.000000	0.000000	0.000000
; New Conduit
CDT-103	JCT-134	JCT-136	193.000000	0.050000	0.000000	0.000000	0.000000	0.000000
; New Conduit
CDT-105	JCT-132	JCT-136	1371.000000	0.050000	0.000000	0.000000	0.000000	0.000000
; New Conduit
CDT-107	JCT-102	1804_W_OF_WASH	535.000000	0.050000	0.000000	0.000000	0.000000	0.000000
; New Conduit
CDT-109	JCT-104	DEFACTO_W_OF_WASH_S_OF_1804	950.000000	0.050000	0.000000	0.000000	0.000000	0.000000
; New Conduit
CDT-111	JCT-120	JCT-80	477.000000	0.050000	0.000000	0.000000	0.000000	0.000000
; New Conduit
CDT-113	JCT-116	DRIVEWAY_WESTERN_S_OF_79TH	255.000000	0.050000	0.000000	0.000000	0.000000	0.000000
; New Conduit
CDT-115	JCT-118	NODE64	32.000000	0.050000	0.000000	0.000000	0.000000	0.000000
; Unnamed Trib 1 XS 235.84 from RAS
CDT-117	JCT-138	NODE74	234.000000	0.050000	0.000000	0.000000	0.000000	0.000000
; Unnamed Trib 1 XS 594.82 from RAS
CDT-119	JCT-140	JCT-138	325.000000	0.050000	0.000000	0.000000	0.000000	0.000000
; Unnamed Trib 1 XS 794.47 from RAS
CDT-121	JCT-142	NODE73.1	237.000000	0.050000	0.000000	0.000000	0.000000	0.000000
; Unnamed Trib 1 XS 1074.31 from RAS
CDT-123	JCT-144	JCT-142	251.000000	0.050000	0.000000	0.000000	0.000000	0.000000
; Unnamed Trib 1 XS 235.84 from RAS
CDT-125	JCT-146	NODE71.1.1	238.000000	0.050000	0.000000	0.000000	0.000000	0.000000
; Splitted conduit
CDT-127	JCT-148	DEFACTO_1804_W_OF_USH83	1238.000000	0.050000	0.000000	0.000000	0.000000	0.000000
; New Conduit
CDT-129	JCT-106	DEFACTO_W_OF_DRIV_ON_RDGLND_LP	131.000000	0.050000	0.000000	0.000000	0.000000	0.000000
; New Conduit
CDT-131	JCT-108	DEFACTO_W_OF_DRIV_ON_RDGLND_LP	125.000000	0.050000	0.000000	0.000000	0.000000	0.000000
; New Conduit
CDT-133	JCT-110	DET_BASIN_NRE_W_NWOOD_S	890.000000	0.050000	0.000000	0.000000	0.000000	0.000000
; New Conduit
CDT-135	JCT-136	DEFACTO_USH83_UPPER	1135.000000	0.050000	0.000000	0.000000	0.000000	0.000000
; Splitted conduit
CDT-201	DEFACTO_PRIVATE_DR_N_OF_79TH_1	DRIVEWAY_N_OF_79TH_1	390.000000	0.050000	0.000000	0.000000	0.000000	0.000000
CDT-23	JCT-24	DET_BASIN_NRE_E_PROP_LINE	580.000000	0.050000	0.000000	0.000000	0.000000	0.000000
CDT-27	JCT-28	JCT-42	410.000000	0.050000	0.000000	0.000000	0.000000	0.000000
CDT-31	JCT-34	DET_BASIN_NRE_W_RIDGELAND_N	1083.000000	0.050000	0.000000	0.000000	0.000000	0.000000
CDT-35	JCT-38	DET_BASIN_NRE_E_PROP_LINE	850.000000	0.050000	0.000000	0.000000	0.000000	0.000000
; Splitted conduit
CDT-37	JCT-40	DET_BASIN_NRE_N_PARKSIDE	600.000000	0.050000	0.000000	0.000000	0.000000	0.000000
; Splitted conduit
CDT-39	JCT-42	DEFACTO_PRIVATE_DR_N_OF_79TH_2	877.000000	0.050000	0.000000	0.000000	0.000000	0.000000
CDT-43	JCT-46	JCT-40	410.000000	0.050000	0.000000	0.000000	0.000000	0.000000
CDT-47	JCT-50	DEFACTO_NE_84TH_RIDGELAND	200.000000	0.050000	0.000000	0.000000	0.000000	0.000000
; Splitted conduit
CDT-51	JCT-56	JCT-80	800.000000	0.050000	0.000000	0.000000	0.000000	0.000000
; Splitted conduit
CDT-55	JCT-60	DEFACTO_PRIVATE_DR_N_OF_79TH_1	390.000000	0.050000	0.000000	0.000000	0.000000	0.000000
; Splitted conduit
CDT-59	JCT-64	DEFACTO_79TH_PRIVETE_DR	150.000000	0.050000	0.000000	0.000000	0.000000	0.000000
; Splitted conduit
CDT-61	JCT-68	JCT-148	657.000000	0.050000	0.000000	0.000000	0.000000	0.000000
CDT-65	JCT-72	DET_BASIN_NRE_INLINE	390.000000	0.050000	0.000000	0.000000	0.000000	0.000000
; Splitted conduit
CDT-71	JCT-80	DEFACTO_11TH	800.000000	0.050000	0.000000	0.000000	0.000000	0.000000
; New Conduit
CDT-93	JCT-128	DEFACTO_E_OF_FENNEL_N_OF_84TH	777.000000	0.050000	0.000000	0.000000	0.000000	0.000000
; New Conduit
CDT-95	JCT-130	DEFACTO_84TH_FENNEL	81.000000	0.050000	0.000000	0.000000	0.000000	0.000000
; New Conduit
CDT-97	JCT-126	DEFACTO_84TH_FENNEL	1729.000000	0.050000	0.000000	0.000000	0.000000	0.000000
; New Conduit
CDT-99	JCT-124	JCT-122	30.000000	0.050000	0.000000	0.000000	0.000000	0.000000
; Culv under Caraway N of 84th
CRWAY_N_84TH_CULV	CRWAY_N_OF_84TH	JCT-128	60.000000	0.024000	0.000000	0.000000	0.000000	0.000000
; Culv under driveway on Ridgeland Lp
DRIVE_ON_RDGLND_LP_CULV	DEFACTO_W_OF_DRIV_ON_RDGLND_LP	JCT-110	48.000000	0.024000	0.000000	0.000000	0.000000	0.000000
; Culv under E Prop Line for NRE det basin
E_PROP_LINE_NRE_DETBASIN_CULV	DET_BASIN_NRE_E_PROP_LINE	JCT-28	40.000000	0.024000	0.030000	0.000000	0.000000	0.000000
; Culv2 under E Prop Line for NRE det basin
E_PROP_LINE_NRE_DETBASIN_CULV2	DET_BASIN_NRE_E_PROP_LINE	JCT-28	41.000000	0.024000	0.000000	0.120000	0.000000	0.000000
; Culv under Fennel N of 84th
FENNEL_N_84TH_CULV	DEFACTO_E_OF_FENNEL_N_OF_84TH	JCT-130	50.000000	0.024000	0.000000	0.000000	0.000000	0.000000
; Culv under embankment for inline basin (NRE Det basin)
INLINE_NRE_DETBASIN_CULV	DET_BASIN_NRE_INLINE	NODE80	80.000000	0.024000	0.000000	0.000000	0.000000	0.000000
; Culv2 under embankment for inline basin (NRE Det basin)
INLINE_NRE_DETBASIN_CULV2	DET_BASIN_NRE_INLINE	NODE80	80.000000	0.024000	0.300000	0.480000	0.000000	0.000000
LINK1063	NODE1071	NODE72	405.000000	0.050000	0.000000	0.000000	0.000000	0.000000
LINK54	NODE62	JCT-42	900.000000	0.050000	0.000000	0.000000	0.000000	0.000000
LINK56	NODE64	DEFACTO_PRIVATE_DR_S_OF_79TH	450.000000	0.050000	0.000000	0.000000	0.000000	0.000000
LINK60	NODE68	DEFACTO_1804_W_OF_USH83	559.000000	0.050000	0.000000	0.000000	0.000000	0.000000
LINK62	NODE70	NODE70.2	927.000000	0.050000	0.000000	0.000000	0.000000	0.000000
LINK62.1	NODE70.1	NODE70.1.1	856.000000	0.050000	0.000000	0.000000	0.000000	0.000000
LINK62.1.1	NODE70.1.1	NODE71	846.000000	0.050000	0.000000	0.000000	0.000000	0.000000
LINK62.2	NODE70.2	NODE70.1	879.000000	0.050000	0.000000	0.000000	0.000000	0.000000
LINK63	NODE71	NODE71.3	375.000000	0.050000	0.000000	0.000000	0.000000	0.000000
LINK63.1	NODE71.1	NODE71.1.2	221.000000	0.050000	0.000000	0.000000	0.000000	0.000000
LINK63.1.1	NODE71.1.1	NODE1071	330.000000	0.050000	0.000000	0.000000	0.000000	0.000000
LINK63.1.2	NODE71.1.2	JCT-146	330.000000	0.050000	0.000000	0.000000	0.000000	0.000000
LINK63.2	NODE71.2	NODE71.2.1	294.000000	0.050000	0.000000	0.000000	0.000000	0.000000
LINK63.2.1	NODE71.2.1	NODE71.1	330.000000	0.050000	0.000000	0.000000	0.000000	0.000000
LINK63.3	NODE71.3	NODE71.2	286.000000	0.050000	0.000000	0.000000	0.000000	0.000000
; Unnamed Trib 1 XS 1285.87 from RAS
LINK65	NODE73	JCT-144	194.000000	0.050000	0.000000	0.000000	0.000000	0.000000
LINK65.1	NODE73.1	JCT-140	100.000000	0.050000	0.000000	0.000000	0.000000	0.000000
LINK67	NODE76	NODE76.2	860.000000	0.050000	0.000000	0.000000	0.000000	0.000000
LINK67.1	NODE76.1	NODE76.1.1	1086.000000	0.050000	0.000000	0.000000	0.000000	0.000000
LINK67.1.1	NODE76.1.1	NODE71	1113.000000	0.050000	0.000000	0.000000	0.000000	0.000000
LINK67.2	NODE76.2	NODE76.1	975.000000	0.050000	0.000000	0.000000	0.000000	0.000000
LINK70	NODE79	DET_BASIN_NRE_INLINE	670.000000	0.100000	0.000000	0.000000	0.000000	0.000000
LINK71	NODE80	DET_BASIN_NRE_W_RIDGELAND_S	950.000000	0.100000	0.000000	0.000000	0.000000	0.000000
LINK73	NODE82	JCT-68	1749.000000	0.050000	0.000000	0.000000	0.000000	0.000000
LINK76	3-4C2	NODE68	1296.000000	0.050000	0.000000	0.000000	0.000000	0.000000
LINK78	NODE85	3-4C2	1120.000000	0.050000	0.000000	0.000000	0.000000	0.000000
; Culv under Northwood Central for NRE Det basin
NORTHWOOD_CENT_NRE_DETBASIN_CULV	DET_BASIN_NRE_W_NWOOD_CENT	NODE79	82.000000	0.024000	0.000000	0.000000	0.000000	0.000000
; Culv2 under embankment for inline basin (NRE Det basin)
NORTHWOOD_CEN_NRE_DETBASIN_CULV2	DET_BASIN_NRE_W_NWOOD_CENT	NODE79	82.000000	0.024000	0.040000	0.130000	0.000000	0.000000
; Culv under Northwood S for NRE Det Basin