[OPTIONS]
;Option and Files Scenario Set: TYPICAL_YEAR, Apr-Oct 1980
FLOW_UNITS	CMS
INFILTRATION	HORTON
FLOW_ROUTING	DYNWAVE
ALLOW_PONDING	NO
DRY_DAYS	3.000000
SKIP_STEADY_STATE 	NO
IGNORE_RAINFALL	NO
FORCE_MAIN_EQUATION	H-W
LINK_OFFSETS	DEPTH
START_DATE	03/31/1980
START_TIME	00:00
END_DATE	11/01/1980
END_TIME	00:00
REPORT_START_DATE	04/01/1980
REPORT_START_TIME	00:00
SWEEP_START	01/01
SWEEP_END	12/31
WET_STEP	01:00:00
DRY_STEP	01:00:00
ROUTING_STEP	60.000000
REPORT_STEP	01:00:00
INERTIAL_DAMPING	NONE
VARIABLE_STEP	0.750000
LENGTHENING_STEP	60
MIN_SURFAREA	0.000000
NORMAL_FLOW_LIMITED	BOTH

[REPORT]
;Report Option Set: BASE, Base Simulation Report
INPUT NO
CONTINUITY YES
FLOWSTATS YES
CONTROLS NO
SUBCATCH NONE
NODE NONE
LINK NONE

[FILES]

[RAINGAGES]
; Lincoln Town Hall Raingage
RAINGAGE-11	VOLUME	1.000000	1.000000	TIMESERIES	TYPICAL_YEAR
; Victoria PS Raingage
RAINGAGE-13	VOLUME	1.000000	1.000000	TIMESERIES	TYPICAL_YEAR
; Baker Rd Raingage
RAINGAGE-7	VOLUME	1.000000	1.000000	TIMESERIES	TYPICAL_YEAR
; West Lincoln Main PS Raingage
RAINGAGE-9	VOLUME	1.000000	1.000000	TIMESERIES	TYPICAL_YEAR

[HYDROGRAPHS]

[EVAPORATION]
CONSTANT	0.000000

[TEMPERATURE]
; BASE Run Climatology Settings

[SUBCATCHMENTS]
; Lakeside Dr Sewershed
12	raingage-13	1021884	29.657180	40.000000	15.000000	0.500000	0.000000	
; Elmer St Sewershed
13	raingage-13	1023288	8.978200	9.000000	5.000000	0.500000	0.000000	
; Laurie Ave PS #2 Sewershed
17	raingage-13	1034623	46.466400	7.500000	2.000000	0.500000	0.000000	
; Livingston Ave Sewershed
2	raingage-13	10001534	134.984430	11.000000	14.000000	0.500000	0.000000	
; Book Rd Sewershed
22	raingage-13	10000882	18.519990	11.000000	15.000000	0.500000	0.000000	
; Campden PS Sewershed
23	raingage-13	1034372	46.204960	7.500000	1.500000	0.500000	0.000000	
; Ontario St #3 Sewershed
29	raingage-13	10001273	336.563990	6.000000	30.000000	0.500000	0.000000	
; Bartlett Rd #1 Sewershed
30	raingage-13	10000831	17.166450	7.500000	3.000000	0.500000	0.000000	
; Sam Road Sewershed
31	raingage-13	10000533	13.353210	3.000000	0.750000	0.500000	0.000000	
; Victoria Ave PS #5 Sewershed
32	raingage-13	10000438	134.297650	1.750000	1.500000	0.500000	0.000000	
; Main St PS Sewershed
33	raingage-13	1034768	34.697490	1.750000	1.500000	0.500000	0.000000	
; Jordan Valley West Sewershed
34	raingage-13	1034646	23.309050	1.750000	1.500000	0.500000	0.000000	
; Main St West Sewershed
35	raingage-13	1021710	59.035600	9.000000	120.000000	0.500000	0.000000	
; QEW South Sewershed
36	raingage-13	1021778	1.530240	9.000000	5.000000	0.500000	0.000000	
; Hunter Rd North Sewershed
37	raingage-13	1021776	9.706670	9.000000	5.000000	0.500000	0.000000	
; QEW North Sewershed
38	raingage-13	1021779	0.376560	9.000000	5.000000	0.500000	0.000000	
; North Service Rd Sewershed
39	raingage-13	1021760	16.459240	9.000000	10.000000	0.500000	0.000000	
; Biggar Lagoon Sewershed
4	raingage-13	1021688	12.850890	9.000000	10.000000	0.500000	0.000000	
; Hunter Rd South Sewershed
40	raingage-13	1023288	14.988790	9.000000	10.000000	0.500000	0.000000	
; South Service Rd Sewershed
406	raingage-13	1021688	11.428520	9.000000	10.000000	0.500000	0.000000	
; Fifty Rd Sewershed
407	raingage-13	1021688	37.342550	9.000000	30.000000	0.500000	0.000000	
; Casablanca Blvd Sewershed
408	raingage-13	1023288	51.497830	9.000000	120.000000	0.500000	0.000000	
; Lincoln Ave Sewershed
409	raingage-13	10000130	4.839310	11.000000	29.005200	0.500000	0.000000	
; Clarke St #3 Sewershed
41	raingage-13	Jct-18	0.850810	0.750000	0.750000	0.500000	0.000000	
; Baker Rd #2 Sewershed
410	raingage-13	10000525	0.850290	11.000000	13.000000	0.500000	0.000000	
; Baker Rd #3 Sewershed
411	raingage-13	10001471	1.825450	11.000000	9.000000	0.500000	0.000000	
; Bartlett Ave N #3 Sewershed
412	raingage-13	10000884	8.397560	11.000000	16.000000	0.500000	0.000000	
; Bendamere Dr Sewershed
413	raingage-13	10000883	1.462200	11.000000	14.000000	0.500000	0.000000	
; Bartlett Ave N #1 Sewershed
414	raingage-13	10000886	2.557430	11.000000	20.000000	0.500000	0.000000	
; Ontario St #2 Sewershed
415	raingage-13	10000215	8.717840	9.000000	8.000000	0.500000	0.000000	
; South Service Rd #2 Sewershed
416	raingage-13	10000123	9.258900	9.000000	8.000000	0.500000	0.000000	
; Green Ln Rd Sewershed
417	raingage-13	10000828	4.061200	3.000000	0.750000	0.500000	0.000000	
; Victoria Ave PS #3 Sewershed
418	raingage-13	10000431	5.562640	7.500000	7.000000	0.500000	0.000000	
; Main St East #2 Sewershed
42	raingage-13	JCT-22	236.325390	1.000000	2.000000	0.500000	0.000000	
; Kerman Ave North Sewershed
426	raingage-13	14000053	13.810320	11.000000	15.000000	0.500000	0.000000	
; Industrial Park Rd Sewershed
427	raingage-13	1121342	53.059780	4.000000	1.500000	0.500000	0.000000	
; Magnolia Cres Sewershed
43	raingage-13	1023288	5.650530	9.000000	5.000000	0.500000	0.000000	
; Elizabeth St Sewershed
433	raingage-13	1021886	5.492750	30.000000	6.000000	0.500000	0.000000	
; Old Orchard Ave PS Sewershed
434	raingage-13	1021886	4.532990	30.000000	6.000000	0.500000	0.000000	
; Murry St Sewershed
435	raingage-13	1023298	16.736960	13.000000	8.000000	0.500000	0.000000	
; Garden Dr Sewershed
436	raingage-13	1021783	7.501460	9.000000	5.000000	0.500000	0.000000	
; Roberts Rd North Sewershed
44	raingage-13	1023293	20.833260	9.000000	30.000000	0.500000	0.000000	
; Clarke St #2 Sewershed
45	raingage-13	1021988	1.613740	11.000000	18.000000	0.500000	0.000000	
; Maple Ave North Sewershed
46	raingage-13	1023313	0.666180	11.000000	6.000000	0.500000	0.000000	
; Roberts Rd South Sewershed
47	raingage-13	1023293	70.504150	9.000000	120.000000	0.500000	0.000000	
; Kerman Ave South Sewershed
48	raingage-13	10000126	7.326760	11.000000	7.000000	0.500000	0.000000	
; Niagara St Sewershed
49	raingage-13	10000126	9.785180	11.000000	4.000000	0.500000	0.000000	
; Ferguson Ave Sewershed
50	raingage-13	10000481	5.239300	11.000000	8.000000	0.500000	0.000000	
; South Street Sewershed
500	raingage-13	1121069	116.605080	0.500000	1.000000	0.500000	0.000000	
; Canborough Street Sewershed
501	raingage-13	1121182	71.689200	6.000000	6.000000	0.500000	0.000000	
; Clarke St #1 Sewershed
51	raingage-13	10001534	1.558150	11.000000	11.000000	0.500000	0.000000	
; Maple Ave South Sewershed
52	raingage-13	1022872	23.024560	2.500000	5.000000	0.500000	0.000000	
; Main St East #1 Sewershed
53	raingage-13	jct-18	62.016400	0.750000	0.750000	0.500000	0.000000	
; Lake St PS Sewershed
54	raingage-13	1023313	45.406990	11.000000	12.000000	0.500000	0.000000	
; Baker Rd #1 Sewershed
55	raingage-13	10000894	2.135990	11.000000	8.000000	0.500000	0.000000	
; Baker Rd #5 Sewershed
56	raingage-13	10001471	0.507450	11.000000	4.000000	0.500000	0.000000	
; Baker Rd #4 Sewershed
57	raingage-13	10001471	5.161250	11.000000	6.000000	0.500000	0.000000	
; Woodeden Rd #2 Sewershed
58	raingage-13	10000901	9.057380	11.000000	6.000000	0.500000	0.000000	
; Woodeden Rd #1 Sewershed
59	raingage-13	10000891	3.088030	11.000000	5.000000	0.500000	0.000000	
; Laurie Ave PS #1 Sewershed
6	raingage-13	1034623	54.914020	7.500000	9.000000	0.500000	0.000000	
; Betts Ave Sewershed
60	raingage-13	10000888	1.501840	11.000000	3.000000	0.500000	0.000000	
; Park Rd North Sewershed
61	raingage-13	10000887	11.194940	11.000000	2.000000	0.500000	0.000000	
; Bartlett Ave N #2 Sewershed
62	raingage-13	10000885	1.391560	11.000000	2.000000	0.500000	0.000000	
; Bal Harbour PS Sewershed
63	raingage-13	1023189	18.701880	11.000000	4.000000	0.500000	0.000000	
; Olive St #1 Sewershed
64	raingage-13	10000859	0.673350	11.000000	5.000000	0.500000	0.000000	
; Woodsview PS Sewershed
65	raingage-13	1021889	19.998690	17.000000	10.000000	0.500000	0.000000	
; Olive St #8 Sewershed
66	raingage-13	10000853	1.033010	11.000000	2.000000	0.500000	0.000000	
; Olive St #7 Sewershed
67	raingage-13	10000858	1.381020	11.000000	1.000000	0.500000	0.000000	
; Olive St #6 Sewershed
68	raingage-13	10000898	3.481790	11.000000	1.500000	0.500000	0.000000	
; Olive St #5 Sewershed
69	raingage-13	10000526	1.383320	11.000000	1.000000	0.500000	0.000000	
; Victoria  Ave PS #1 Sewershed
7	raingage-13	10001271	12.550060	7.500000	3.000000	0.500000	0.000000	
; Olive St #4 Sewershed
70	raingage-13	10000897	0.952150	11.000000	1.500000	0.500000	0.000000	
; Olive St #3 Sewershed
71	raingage-13	10000896	2.183440	11.000000	2.000000	0.500000	0.000000	
; Olive St #2 Sewershed
72	raingage-13	10000862	3.378370	11.000000	3.000000	0.500000	0.000000	
; Lake St #1 Sewershed
73	raingage-13	Jct-18	13.423580	0.750000	0.750000	0.500000	0.000000	
; Lake St #2 Sewershed
74	raingage-13	10000846	1.783270	11.000000	3.000000	0.500000	0.000000	
; Lake St #3 Sewershed
75	raingage-13	10000849	3.459600	11.000000	2.000000	0.500000	0.000000	
; Shurie Rd Sewershed
76	raingage-13	1121257	27.048280	2.000000	0.250000	0.500000	0.000000	
; Bartlett Rd #3 Sewershed
77	raingage-13	10000533	18.101590	3.000000	0.750000	0.500000	0.000000	
; Ontario St #1 Sewershed
78	raingage-13	10000215	23.010990	9.000000	8.000000	0.500000	0.000000	
; Bartlett Rd #2 Sewershed
79	raingage-13	10000828	11.246600	3.000000	0.750000	0.500000	0.000000	
; Victoria Ave PS #2 Sewershed
8	raingage-13	10000420	13.385540	7.500000	1.500000	0.500000	0.000000	
; Bartlett Rd #4 Sewershed
80	raingage-13	10000533	42.788560	3.000000	0.750000	0.500000	0.000000	
; South Service Rd #1 Sewershed
81	raingage-13	10000187	12.571750	9.000000	8.000000	0.500000	0.000000	
; Victoria Ave PS #4 Sewershed
82	raingage-13	10000436	14.436620	1.750000	1.500000	0.500000	0.000000	
; Jordan Valley North Sewershed
83	raingage-13	1034648	22.213980	1.750000	1.500000	0.500000	0.000000	
; Townline Rd Sewershed
85	raingage-13	1121257	3.420140	2.000000	0.250000	0.500000	0.000000	
; Jordan Valley South Sewershed
9	raingage-13	1034668	62.995450	1.750000	1.500000	0.500000	0.000000	

[SUBAREAS]
12	0.014000	0.030000	0.500000	2.000000	0.000000	OUTLET
13	0.014000	0.030000	0.500000	2.000000	0.000000	OUTLET
17	0.014000	0.030000	0.500000	2.000000	0.000000	OUTLET
2	0.014000	0.030000	0.500000	2.000000	0.000000	OUTLET
22	0.014000	0.030000	0.500000	2.000000	0.000000	OUTLET
23	0.014000	0.030000	0.500000	2.000000	0.000000	OUTLET
29	0.014000	0.030000	0.500000	2.000000	0.000000	OUTLET
30	0.014000	0.030000	0.500000	2.000000	0.000000	OUTLET
31	0.014000	0.030000	0.500000	2.000000	0.000000	OUTLET
32	0.014000	0.030000	0.500000	2.000000	0.000000	OUTLET
33	0.014000	0.030000	0.500000	2.000000	0.000000	OUTLET
34	0.014000	0.030000	0.500000	2.000000	0.000000	OUTLET
35	0.014000	0.030000	0.500000	2.000000	0.000000	OUTLET
36	0.014000	0.030000	0.500000	2.000000	0.000000	OUTLET
37	0.014000	0.030000	0.500000	2.000000	0.000000	OUTLET
38	0.014000	0.030000	0.500000	2.000000	0.000000	OUTLET
39	0.014000	0.030000	0.500000	2.000000	0.000000	OUTLET
4	0.014000	0.030000	0.500000	2.000000	0.000000	OUTLET
40	0.014000	0.030000	0.500000	2.000000	0.000000	OUTLET
406	0.014000	0.030000	0.500000	2.000000	0.000000	OUTLET
407	0.014000	0.030000	0.500000	2.000000	0.000000	OUTLET
408	0.014000	0.030000	0.500000	2.000000	0.000000	OUTLET
409	0.014000	0.030000	0.500000	2.000000	0.000000	OUTLET
41	0.014000	0.030000	0.500000	2.000000	0.000000	OUTLET
410	0.014000	0.030000	0.500000	2.000000	0.000000	OUTLET
411	0.014000	0.030000	0.500000	2.000000	0.000000	OUTLET
412	0.014000	0.030000	0.500000	2.000000	0.000000	OUTLET
413	0.014000	0.030000	0.500000	2.000000	0.000000	OUTLET
414	0.014000	0.030000	0.500000	2.000000	0.000000	OUTLET
415	0.014000	0.030000	0.500000	2.000000	0.000000	OUTLET
416	0.014000	0.030000	0.500000	2.000000	0.000000	OUTLET
417	0.014000	0.030000	0.500000	2.000000	0.000000	OUTLET
418	0.014000	0.030000	0.500000	2.000000	0.000000	OUTLET
42	0.014000	0.030000	0.500000	2.000000	0.000000	OUTLET
426	0.014000	0.030000	0.500000	2.000000	0.000000	OUTLET
427	0.014000	0.030000	0.500000	2.000000	0.000000	OUTLET
43	0.014000	0.030000	0.500000	2.000000	0.000000	OUTLET
433	0.014000	0.030000	0.500000	2.000000	0.000000	OUTLET
434	0.014000	0.030000	0.500000	2.000000	0.000000	OUTLET
435	0.014000	0.030000	0.500000	2.000000	0.000000	OUTLET
436	0.014000	0.030000	0.500000	2.000000	0.000000	OUTLET
44	0.014000	0.030000	0.500000	2.000000	0.000000	OUTLET
45	0.014000	0.030000	0.500000	2.000000	0.000000	OUTLET
46	0.014000	0.030000	0.500000	2.000000	0.000000	OUTLET
47	0.014000	0.030000	0.500000	2.000000	0.000000	OUTLET
48	0.014000	0.030000	0.500000	2.000000	0.000000	OUTLET
49	0.014000	0.030000	0.500000	2.000000	0.000000	OUTLET
50	0.014000	0.030000	0.500000	2.000000	0.000000	OUTLET
500	0.014000	0.030000	0.500000	2.000000	0.000000	OUTLET
501	0.014000	0.030000	0.500000	2.000000	0.000000	OUTLET
51	0.014000	0.030000	0.500000	2.000000	0.000000	OUTLET
52	0.014000	0.030000	0.500000	2.000000	0.000000	OUTLET
53	0.014000	0.030000	0.500000	2.000000	0.000000	OUTLET
54	0.014000	0.030000	0.500000	2.000000	0.000000	OUTLET
55	0.014000	0.030000	0.500000	2.000000	0.000000	OUTLET
56	0.014000	0.030000	0.500000	2.000000	0.000000	OUTLET
57	0.014000	0.030000	0.500000	2.000000	0.000000	OUTLET
58	0.014000	0.030000	0.500000	2.000000	0.000000	OUTLET
59	0.014000	0.030000	0.500000	2.000000	0.000000	OUTLET
6	0.014000	0.030000	0.500000	2.000000	0.000000	OUTLET
60	0.014000	0.030000	0.500000	2.000000	0.000000	OUTLET
61	0.014000	0.030000	0.500000	2.000000	0.000000	OUTLET
62	0.014000	0.030000	0.500000	2.000000	0.000000	OUTLET
63	0.014000	0.030000	0.500000	2.000000	0.000000	OUTLET
64	0.014000	0.030000	0.500000	2.000000	0.000000	OUTLET
65	0.014000	0.030000	0.500000	2.000000	0.000000	OUTLET
66	0.014000	0.030000	0.500000	2.000000	0.000000	OUTLET
67	0.014000	0.030000	0.500000	2.000000	0.000000	OUTLET
68	0.014000	0.030000	0.500000	2.000000	0.000000	OUTLET
69	0.014000	0.030000	0.500000	2.000000	0.000000	OUTLET
7	0.014000	0.030000	0.500000	2.000000	0.000000	OUTLET
70	0.014000	0.030000	0.500000	2.000000	0.000000	OUTLET
71	0.014000	0.030000	0.500000	2.000000	0.000000	OUTLET
72	0.014000	0.030000	0.500000	2.000000	0.000000	OUTLET
73	0.014000	0.030000	0.500000	2.000000	0.000000	OUTLET
74	0.014000	0.030000	0.500000	2.000000	0.000000	OUTLET
75	0.014000	0.030000	0.500000	2.000000	0.000000	OUTLET
76	0.014000	0.030000	0.500000	2.000000	0.000000	OUTLET
77	0.014000	0.030000	0.500000	2.000000	0.000000	OUTLET
78	0.014000	0.030000	0.500000	2.000000	0.000000	OUTLET
79	0.014000	0.030000	0.500000	2.000000	0.000000	OUTLET
8	0.014000	0.030000	0.500000	2.000000	0.000000	OUTLET
80	0.014000	0.030000	0.500000	2.000000	0.000000	OUTLET
81	0.014000	0.030000	0.500000	2.000000	0.000000	OUTLET
82	0.014000	0.030000	0.500000	2.000000	0.000000	OUTLET
83	0.014000	0.030000	0.500000	2.000000	0.000000	OUTLET
85	0.014000	0.030000	0.500000	2.000000	0.000000	OUTLET
9	0.014000	0.030000	0.500000	2.000000	0.000000	OUTLET

[INFILTRATION]
12	75.500000	5.450000	4.000000	4.000000	0.000000
13	25.000000	2.500000	5.000000	5.000000	0.000000
17	75.500000	5.450000	4.000000	4.000000	0.000000
2	75.500000	5.450000	4.000000	4.000000	0.000000
22	75.500000	5.450000	4.000000	4.000000	0.000000
23	75.500000	5.450000	4.000000	4.000000	0.000000
29	75.500000	5.450000	4.000000	4.000000	0.000000
30	75.500000	5.450000	4.000000	4.000000	0.000000
31	75.500000	5.450000	4.000000	4.000000	0.000000
32	75.500000	5.450000	4.000000	4.000000	0.000000
33	75.500000	5.450000	4.000000	4.000000	0.000000
34	75.500000	5.450000	4.000000	4.000000	0.000000
35	75.500000	5.450000	4.000000	4.000000	0.000000
36	25.000000	2.500000	5.000000	5.000000	0.000000
37	25.000000	2.500000	5.000000	5.000000	0.000000
38	25.000000	2.500000	5.000000	5.000000	0.000000
39	25.000000	2.500000	5.000000	5.000000	0.000000
4	75.500000	5.450000	4.000000	4.000000	0.000000
40	25.000000	2.500000	5.000000	5.000000	0.000000
406	75.500000	5.450000	4.000000	4.000000	0.000000
407	75.500000	5.450000	4.000000	4.000000	0.000000
408	25.000000	2.500000	5.000000	5.000000	0.000000
409	75.500000	5.450000	4.000000	4.000000	0.000000
41	75.500000	5.450000	4.000000	4.000000	0.000000
410	75.500000	5.450000	4.000000	4.000000	0.000000
411	75.500000	5.450000	4.000000	4.000000	0.000000
412	75.500000	5.450000	4.000000	4.000000	0.000000
413	75.500000	5.450000	4.000000	4.000000	0.000000
414	75.500000	5.450000	4.000000	4.000000	0.000000
415	75.500000	5.450000	4.000000	4.000000	0.000000
416	75.500000	5.450000	4.000000	4.000000	0.000000
417	75.500000	5.450000	4.000000	4.000000	0.000000
418	75.500000	5.450000	4.000000	4.000000	0.000000
42	75.500000	5.450000	4.000000	4.000000	0.000000
426	75.500000	5.450000	4.000000	4.000000	0.000000
427	81.500000	6.600000	3.900000	3.900000	0.000000
43	25.000000	2.500000	5.000000	5.000000	0.000000
433	75.500000	5.450000	4.000000	4.000000	0.000000
434	75.500000	5.450000	4.000000	4.000000	0.000000
435	75.500000	5.450000	4.000000	4.000000	0.000000
436	25.000000	2.500000	5.000000	5.000000	0.000000
44	25.000000	2.500000	5.000000	5.000000	0.000000
45	75.500000	5.450000	4.000000	4.000000	0.000000
46	75.500000	5.450000	4.000000	4.000000	0.000000
47	25.000000	2.500000	5.000000	5.000000	0.000000
48	75.500000	5.450000	4.000000	4.000000	0.000000
49	75.500000	5.450000	4.000000	4.000000	0.000000
50	75.500000	5.450000	4.000000	4.000000	0.000000
500	81.500000	6.600000	3.900000	3.900000	0.000000
501	81.500000	6.600000	3.900000	3.900000	0.000000
51	75.500000	5.450000	4.000000	4.000000	0.000000
52	25.000000	2.500000	5.000000	5.000000	0.000000
53	75.500000	5.450000	4.000000	4.000000	0.000000
54	75.500000	5.450000	4.000000	4.000000	0.000000
55	75.500000	5.450000	4.000000	4.000000	0.000000
56	75.500000	5.450000	4.000000	4.000000	0.000000
57	75.500000	5.450000	4.000000	4.000000	0.000000
58	75.500000	5.450000	4.000000	4.000000	0.000000
59	75.500000	5.450000	4.000000	4.000000	0.000000
6	75.500000	5.450000	4.000000	4.000000	0.000000
60	75.500000	5.450000	4.000000	4.000000	0.000000
61	75.500000	5.450000	4.000000	4.000000	0.000000
62	75.500000	5.450000	4.000000	4.000000	0.000000
63	75.500000	5.450000	4.000000	4.000000	0.000000
64	75.500000	5.450000	4.000000	4.000000	0.000000
65	75.500000	5.450000	4.000000	4.000000	0.000000
66	75.500000	5.450000	4.000000	4.000000	0.000000
67	75.500000	5.450000	4.000000	4.000000	0.000000
68	75.500000	5.450000	4.000000	4.000000	0.000000
69	75.500000	5.450000	4.000000	4.000000	0.000000
7	75.500000	5.450000	4.000000	4.000000	0.000000
70	75.500000	5.450000	4.000000	4.000000	0.000000
71	75.500000	5.450000	4.000000	4.000000	0.000000
72	75.500000	5.450000	4.000000	4.000000	0.000000
73	75.500000	5.450000	4.000000	4.000000	0.000000
74	75.500000	5.450000	4.000000	4.000000	0.000000
75	75.500000	5.450000	4.000000	4.000000	0.000000
76	81.500000	6.600000	3.900000	3.900000	0.000000
77	75.500000	5.450000	4.000000	4.000000	0.000000
78	75.500000	5.450000	4.000000	4.000000	0.000000
79	75.500000	5.450000	4.000000	4.000000	0.000000
8	75.500000	5.450000	4.000000	4.000000	0.000000
80	75.500000	5.450000	4.000000	4.000000	0.000000
81	75.500000	5.450000	4.000000	4.000000	0.000000
82	75.500000	5.450000	4.000000	4.000000	0.000000
83	75.500000	5.450000	4.000000	4.000000	0.000000
85	81.500000	6.600000	3.900000	3.900000	0.000000
9	75.500000	5.450000	4.000000	4.000000	0.000000

[AQUIFERS]

[GROUNDWATER]

[SNOWPACKS]
; New SnowPack
SNOWPACK-1	PLOWABLE	0.001000	0.001000	32.000000	0.100000	0.000000	0.000000	0.000000
SNOWPACK-1	IMPERVIOUS	0.001000	0.001000	32.000000	0.100000	0.000000	0.000000	0.000000
SNOWPACK-1	PERVIOUS	0.001000	0.001000	32.000000	0.100000	0.000000	0.000000	0.000000
SNOWPACK-1	REMOVAL	0.000000	0.000000	0.000000	0.000000	0.000000	0.000000

[JUNCTIONS]
10000120	81.540000	1.509000	0.000000	0.000000	0.000000
10000121	81.390000	1.620000	0.000000	0.000000	0.000000
10000122	81.230000	1.647000	0.000000	0.000000	0.000000
10000123	81.090000	2.886000	0.000000	0.000000	0.000000
10000124	80.990000	4.166000	0.000000	0.000000	0.000000
10000125	80.870000	3.473000	0.000000	0.000000	0.000000
10000126	85.570000	3.397000	0.000000	0.000000	0.000000
10000127	85.300000	4.378000	0.000000	0.000000	0.000000
10000128	85.110000	5.464000	0.000000	0.000000	0.000000
10000129	84.790000	4.844000	0.000000	0.000000	0.000000
10000130	84.640000	5.345000	0.000000	0.000000	0.000000
10000137	79.080000	5.088000	0.000000	0.000000	0.000000
10000138	79.250000	4.610000	0.000000	0.000000	0.000000
10000139	79.440000	4.560000	0.000000	0.000000	0.000000
10000172	163.860000	5.264000	0.000000	0.000000	0.000000
10000185	79.550000	4.695000	0.000000	0.000000	0.000000
10000186	79.810000	4.190000	0.000000	0.000000	0.000000
10000187	80.520000	5.364000	0.000000	0.000000	0.000000
10000188	78.900000	3.181000	0.000000	0.000000	0.000000
10000189	78.920000	4.096000	0.000000	0.000000	0.000000
10000205	78.950000	4.974000	0.000000	0.000000	0.000000
10000206	79.020000	5.959000	0.000000	0.000000	0.000000
10000207	79.380000	5.618000	0.000000	0.000000	0.000000
10000208	79.560000	4.282000	0.000000	0.000000	0.000000
10000209	79.740000	4.897000	0.000000	0.000000	0.000000
10000210	79.930000	6.017000	0.000000	0.000000	0.000000
10000211	80.110000	8.822000	0.000000	0.000000	0.000000
10000212	80.300000	5.942000	0.000000	0.000000	0.000000
10000213	80.740000	5.028000	0.000000	0.000000	0.000000
10000214	81.140000	4.821000	0.000000	0.000000	0.000000
10000215	81.500000	5.118000	0.000000	0.000000	0.000000
10000216	82.550000	4.450000	0.000000	0.000000	0.000000
10000217	83.500000	4.058000	0.000000	0.000000	0.000000
10000218	80.280000	3.720000	0.000000	0.000000	0.000000
10000219	80.500000	3.618000	0.000000	0.000000	0.000000
10000220	80.530000	3.830000	0.000000	0.000000	0.000000
10000221	80.720000	4.490000	0.000000	0.000000	0.000000
10000222	80.890000	4.481000	0.000000	0.000000	0.000000
10000223	81.090000	3.920000	0.000000	0.000000	0.000000
10000225	81.590000	4.592000	0.000000	0.000000	0.000000
10000226	81.880000	4.585000	0.000000	0.000000	0.000000
10000227	82.050000	4.734000	0.000000	0.000000	0.000000
10000228	82.600000	4.723000	0.000000	0.000000	0.000000
10000229	83.070000	4.803000	0.000000	0.000000	0.000000
10000230	84.050000	4.579000	0.000000	0.000000	0.000000
10000231	84.220000	4.896000	0.000000	0.000000	0.000000
10000232	84.390000	5.321000	0.000000	0.000000	0.000000
10000233	84.560000	5.807000	0.000000	0.000000	0.000000
10000234	84.730000	6.089000	0.000000	0.000000	0.000000
10000371	84.774000	4.419000	0.000000	0.000000	0.000000
10000407	76.475000	5.423000	0.000000	0.000000	0.000000
10000408	77.680000	3.463000	0.000000	0.000000	0.000000
10000418	84.900000	6.041000	0.000000	0.000000	0.000000
10000419	85.030000	5.860000	0.000000	0.000000	0.000000
10000420	85.160000	5.507000	0.000000	0.000000	0.000000
10000421	85.340000	5.346000	0.000000	0.000000	0.000000
10000422	85.488000	5.559000	0.000000	0.000000	0.000000
10000423	85.520000	5.549000	0.000000	0.000000	0.000000
10000424	85.711000	5.334000	0.000000	0.000000	0.000000
10000425	85.914000	3.699000	0.000000	0.000000	0.000000
10000426	86.127000	1.214000	0.000000	0.000000	0.000000
10000427	86.318000	1.682000	0.000000	0.000000	0.000000
10000428	86.529000	3.510000	0.000000	0.000000	0.000000
10000429	86.658000	4.991000	0.000000	0.000000	0.000000
10000430	86.944000	5.377000	0.000000	0.000000	0.000000
10000431	87.181000	5.608000	0.000000	0.000000	0.000000
10000432	87.236000	5.525000	0.000000	0.000000	0.000000
10000433	87.510000	5.555000	0.000000	0.000000	0.000000
10000434	87.780000	5.692000	0.000000	0.000000	0.000000
10000435	88.200000	5.582000	0.000000	0.000000	0.000000
10000436	88.440000	5.628000	0.000000	0.000000	0.000000
10000437	89.170000	5.478000	0.000000	0.000000	0.000000
10000438	90.460000	5.147000	0.000000	0.000000	0.000000
10000439	89.810000	5.260000	0.000000	0.000000	0.000000
10000440	84.960000	4.040000	0.000000	0.000000	0.000000
10000441	81.620000	5.397000	0.000000	0.000000	0.000000
10000466	81.610000	4.663000	0.000000	0.000000	0.000000
10000479	84.340000	5.660000	0.000000	0.000000	0.000000
10000480	84.310000	5.624000	0.000000	0.000000	0.000000
10000481	82.220000	8.755000	0.000000	0.000000	0.000000
10000482	171.240000	5.709000	0.000000	0.000000	0.000000
10000483	167.480000	5.520000	0.000000	0.000000	0.000000
10000505	77.170000	3.326000	0.000000	0.000000	0.000000
10000524	82.670000	2.652000	0.000000	0.000000	0.000000
10000525	77.670000	6.262000	0.000000	0.000000	0.000000
10000526	83.230000	4.726000	0.000000	0.000000	0.000000
10000527	83.070000	4.817000	0.000000	0.000000	0.000000
10000528	82.890000	4.218000	0.000000	0.000000	0.000000
10000529	82.590000	4.410000	0.000000	0.000000	0.000000
10000530	82.560000	4.750000	0.000000	0.000000	0.000000
10000533	85.785000	2.888000	0.000000	0.000000	0.000000
10000595	79.300000	5.694000	0.000000	0.000000	0.000000
10000610	80.380000	5.360000	0.000000	0.000000	0.000000
10000799	79.980000	4.009000	0.000000	0.000000	0.000000
10000800	81.420000	4.420000	0.000000	0.000000	0.000000
10000824	85.080000	2.920000	0.000000	0.000000	0.000000
10000825	84.830000	2.170000	0.000000	0.000000	0.000000
10000826	84.510000	2.490000	0.000000	0.000000	0.000000
10000827	83.700000	3.292000	0.000000	0.000000	0.000000
10000828	83.310000	3.635000	0.000000	0.000000	0.000000
10000829	83.130000	2.667000	0.000000	0.000000	0.000000
10000830	82.620000	2.579000	0.000000	0.000000	0.000000
10000831	82.310000	2.663000	0.000000	0.000000	0.000000
10000832	82.200000	1.799000	0.000000	0.000000	0.000000
10000833	81.990000	1.104000	0.000000	0.000000	0.000000
10000834	81.670000	1.448000	0.000000	0.000000	0.000000
10000840	74.790000	6.206000	0.000000	0.000000	0.000000
10000841	74.310000	5.626000	0.000000	0.000000	0.000000
10000842	74.110000	4.114000	0.000000	0.000000	0.000000
10000843	73.740000	4.248000	0.000000	0.000000	0.000000
10000844	78.940000	6.060000	0.000000	0.000000	0.000000
10000845	78.720000	5.646000	0.000000	0.000000	0.000000
10000846	78.430000	6.570000	0.000000	0.000000	0.000000
10000847	78.300000	6.951000	0.000000	0.000000	0.000000
10000848	78.130000	6.870000	0.000000	0.000000	0.000000
10000849	77.970000	4.910000	0.000000	0.000000	0.000000
10000850	77.230000	6.628000	0.000000	0.000000	0.000000
10000851	82.130000	4.772000	0.000000	0.000000	0.000000
10000852	81.990000	4.811000	0.000000	0.000000	0.000000
10000853	81.800000	4.256000	0.000000	0.000000	0.000000
10000854	81.730000	4.303000	0.000000	0.000000	0.000000
10000855	81.570000	5.021000	0.000000	0.000000	0.000000
10000856	81.420000	5.580000	0.000000	0.000000	0.000000
10000857	77.950000	4.425000	0.000000	0.000000	0.000000
10000858	82.350000	4.689000	0.000000	0.000000	0.000000
10000859	84.880000	3.051000	0.000000	0.000000	0.000000
10000860	84.740000	3.018000	0.000000	0.000000	0.000000
10000861	84.470000	2.905000	0.000000	0.000000	0.000000
10000862	84.280000	2.868000	0.000000	0.000000	0.000000
10000864	84.110000	2.890000	0.000000	0.000000	0.000000
10000865	83.780000	3.670000	0.000000	0.000000	0.000000
10000866	83.390000	4.586000	0.000000	0.000000	0.000000
10000867	86.400000	2.000000	0.000000	0.000000	0.000000
10000868	86.050000	2.950000	0.000000	0.000000	0.000000
10000869	85.690000	4.310000	0.000000	0.000000	0.000000
10000870	85.360000	3.602000	0.000000	0.000000	0.000000
10000871	85.040000	3.847000	0.000000	0.000000	0.000000
10000872	84.690000	3.711000	0.000000	0.000000	0.000000
10000881	83.590000	4.352000	0.000000	0.000000	0.000000
10000882	79.780000	7.187000	0.000000	0.000000	0.000000
10000883	79.120000	7.822000	0.000000	0.000000	0.000000
10000884	78.780000	6.691000	0.000000	0.000000	0.000000
10000885	78.660000	7.714000	0.000000	0.000000	0.000000
10000886	78.610000	8.671000	0.000000	0.000000	0.000000
10000887	78.530000	8.404000	0.000000	0.000000	0.000000
10000888	78.310000	7.750000	0.000000	0.000000	0.000000
10000889	78.180000	7.308000	0.000000	0.000000	0.000000
10000890	78.020000	7.012000	0.000000	0.000000	0.000000
10000891	77.880000	7.964000	0.000000	0.000000	0.000000
10000892	77.780000	7.178000	0.000000	0.000000	0.000000
10000893	77.700000	6.252000	0.000000	0.000000	0.000000
10000894	77.480000	7.267000	0.000000	0.000000	0.000000
10000895	77.380000	7.620000	0.000000	0.000000	0.000000
10000896	83.810000	3.468000	0.000000	0.000000	0.000000
10000897	83.710000	3.810000	0.000000	0.000000	0.000000
10000898	82.540000	4.586000	0.000000	0.000000	0.000000
10000899	83.840000	2.737000	0.000000	0.000000	0.000000
10000900	73.624000	4.631000	0.000000	0.000000	0.000000
10000901	78.137000	6.987000	0.000000	0.000000	0.000000
10000902	84.620000	2.398000	0.000000	0.000000	0.000000
10000999	81.690000	5.514000	0.000000	0.000000	0.000000
10001000	81.270000	4.305000	0.000000	0.000000	0.000000
10001001	79.060000	2.598000	0.000000	0.000000	0.000000
10001002	77.410000	4.798000	0.000000	0.000000	0.000000
10001003	75.230000	7.667000	0.000000	0.000000	0.000000
10001103	197.350000	3.515000	0.000000	0.000000	0.000000
10001104	196.390000	2.610000	0.000000	0.000000	0.000000
10001105	193.980000	3.660000	0.000000	0.000000	0.000000
10001106	190.760000	2.439000	0.000000	0.000000	0.000000
10001107	188.970000	2.068000	0.000000	0.000000	0.000000
10001108	188.110000	2.594000	0.000000	0.000000	0.000000
10001109	187.710000	2.371000	0.000000	0.000000	0.000000
10001110	185.150000	4.759000	0.000000	0.000000	0.000000
10001111	181.150000	4.825000	0.000000	0.000000	0.000000
10001112	179.350000	3.977000	0.000000	0.000000	0.000000
10001113	175.210000	4.979000	0.000000	0.000000	0.000000
10001152	130.970000	8.030000	0.000000	0.000000	0.000000
10001161	160.660000	4.906000	0.000000	0.000000	0.000000
10001162	157.140000	4.842000	0.000000	0.000000	0.000000
10001163	153.790000	4.177000	0.000000	0.000000	0.000000
10001164	151.160000	4.204000	0.000000	0.000000	0.000000
10001165	148.710000	3.906000	0.000000	0.000000	0.000000
10001166	145.780000	4.089000	0.000000	0.000000	0.000000
10001167	141.320000	4.107000	0.000000	0.000000	0.000000
10001168	136.670000	4.360000	0.000000	0.000000	0.000000
10001169	125.670000	9.742000	0.000000	0.000000	0.000000
10001170	123.200000	7.110000	0.000000	0.000000	0.000000
10001171	122.860000	4.140000	0.000000	0.000000	0.000000
10001172	118.190000	6.101000	0.000000	0.000000	0.000000
10001173	114.480000	4.939000	0.000000	0.000000	0.000000
10001174	110.800000	4.879000	0.000000	0.000000	0.000000
10001175	107.300000	5.331000	0.000000	0.000000	0.000000