[TITLE]
;;Project Title/Notes

[OPTIONS]
;;Option             Value
FLOW_UNITS           CFS
INFILTRATION         HORTON
FLOW_ROUTING         DYNWAVE
LINK_OFFSETS         DEPTH
MIN_SLOPE            0
ALLOW_PONDING        NO
SKIP_STEADY_STATE    NO

IGNORE_QUALITY       YES
START_DATE           01/01/2002
START_TIME           00:00:00
REPORT_START_DATE    01/01/2002
REPORT_START_TIME    00:00:00
END_DATE             01/01/2002
END_TIME             10:00:00
SWEEP_START          01/01
SWEEP_END            12/31
DRY_DAYS             12.000000
REPORT_STEP          00:05:00
WET_STEP             00:05:00
DRY_STEP             01:00:00
ROUTING_STEP         0:00:20 

INERTIAL_DAMPING     NONE
NORMAL_FLOW_LIMITED  BOTH
FORCE_MAIN_EQUATION  H-W
VARIABLE_STEP        0.75
LENGTHENING_STEP     20
MIN_SURFAREA         0
MAX_TRIALS           0
HEAD_TOLERANCE       0
SYS_FLOW_TOL         5
LAT_FLOW_TOL         5
MINIMUM_STEP         0.5
THREADS              1

[EVAPORATION]
;;Data Source    Parameters
;;-------------- ----------------
CONSTANT         0.0
DRY_ONLY         NO

[RAINGAGES]
;;Name           Format    Interval SCF      Source    
;;-------------- --------- ------ ------ ----------
; New Raingage
RAINGAGE-1       VOLUME    0.083000 1.000000 TIMESERIES 10YR            
; New Raingage
RAINGAGE-3       VOLUME    0.083000 1.000000 TIMESERIES EXTREME         
; New Raingage
RAINGAGE-5       VOLUME    0.083000 1.000000 TIMESERIES EXTREME         

[SUBCATCHMENTS]
;;Name           Rain Gage        Outlet           Area     %Imperv  Width    %Slope   CurbLen  SnowPack        
;;-------------- ---------------- ---------------- -------- -------- -------- -------- -------- ----------------
; New Subcatchment
SUB-1034         RAINGAGE-5       JCT-182          0.69     44.000000 0.661130 0.487489 0.000000                 
; New Subcatchment
SUB-1036         RAINGAGE-5       JCT-186          0.96     32.650000 0.778669 0.799878 0.000000                 
; New Subcatchment
SUB-1038         RAINGAGE-5       JCT-182          2.56     61.000000 1.270960 0.106107 0.000000                 
; New Subcatchment
SUB-1040         RAINGAGE-5       JCT-176          0.55     63.000000 0.589406 1.737182 0.000000                 
; New Subcatchment
SUB-1044         RAINGAGE-5       JCT-338          0.50     85.000000 0.561117 0.066105 0.000000                 
; New Subcatchment
SUB-1046         RAINGAGE-5       JCT-64           5.17     65.000000 1.807933 0.059725 0.000000                 
; New Subcatchment
SUB-1048         RAINGAGE-5       JCT-58           0.51     94.000000 0.567236 0.873314 0.000000                 
; New Subcatchment
SUB-1050         RAINGAGE-5       JCT-382          0.95     75.000000 0.773361 2.768460 0.000000                 
; New Subcatchment
SUB-1052         RAINGAGE-5       JCT-184          0.62     62.000000 0.624626 0.044204 0.000000                 
; New Subcatchment
SUB-1054         RAINGAGE-5       JCT-60           2.65     42.000000 1.293851 0.474634 0.000000                 
; New Subcatchment
SUB-1056         RAINGAGE-5       JCT-54           4.50     53.000000 1.685849 6.308269 0.000000                 
; New Subcatchment
SUB-1058         RAINGAGE-5       JCT-340          0.80     84.000000 0.708733 0.221095 0.000000                 
; New Subcatchment
SUB-1060         RAINGAGE-5       JCT-188          0.22     76.000000 0.375858 1.361287 0.000000                 
; New Subcatchment
SUB-1062         RAINGAGE-5       JCT-312          0.87     53.000000 0.741340 0.462416 0.000000                 
; New Subcatchment
SUB-1086         RAINGAGE-5       JCT-20           2.72     96.000000 1.310094 0.325316 0.000000                 
; New Subcatchment
SUB-1116         RAINGAGE-5       JCT-172          2.17     85.000000 1.171902 12.603000 0.000000                 
; New Subcatchment
SUB-1134         RAINGAGE-5       JCT-124          0.88     75.000000 0.745904 9.853551 0.000000                 
; New Subcatchment
SUB-1136         RAINGAGE-5       JCT-380          1.49     80.000000 0.970749 3.848282 0.000000                 
; New Subcatchment
SUB-1138         RAINGAGE-5       JCT-18           2.09     84.000000 1.147995 0.244582 0.000000                 
; New Subcatchment
SUB-1142         RAINGAGE-5       JCT-14           0.59     99.000000 0.609489 1.659445 0.000000                 
; New Subcatchment
SUB-1144         RAINGAGE-5       JCT-318          1.30     96.000000 0.906466 0.011909 0.000000                 
; New Subcatchment
SUB-1146         RAINGAGE-5       JCT-14           2.17     90.000000 1.170267 0.164198 0.000000                 
; New Subcatchment
SUB-1150         RAINGAGE-5       JCT-10           4.78     85.000000 1.737821 1.409742 0.000000                 
; New Subcatchment
SUB-1152         RAINGAGE-5       JCT-40           1.41     74.000000 0.945376 0.804578 0.000000                 
; New Subcatchment
SUB-1154         RAINGAGE-5       JCT-336          6.36     66.000000 2.005236 2.511162 0.000000                 
; New Subcatchment
SUB-1156         RAINGAGE-5       JCT-190          3.26     69.000000 1.435059 0.009205 0.000000                 
; New Subcatchment
SUB-1158         RAINGAGE-5       JCT-316          0.36     89.000000 0.474388 0.785303 0.000000                 
; New Subcatchment
SUB-1162         RAINGAGE-5       JCT-180          3.03     92.000000 1.382994 0.674946 0.000000                 
; New Subcatchment
SUB-1164         RAINGAGE-5       JCT-44           2.18     84.000000 1.173559 0.692717 0.000000                 
; New Subcatchment
SUB-1166         RAINGAGE-5       JCT-26           1.47     76.000000 0.962617 11.870944 0.000000                 
; New Subcatchment
SUB-1168         RAINGAGE-5       JCT-132          4.25     78.000000 1.639476 0.699547 0.000000                 
; New Subcatchment
SUB-1170         RAINGAGE-5       JCT-22           3.72     62.000000 1.533291 2.047456 0.000000                 
; New Subcatchment
SUB-1172         RAINGAGE-5       JCT-308          1.10     48.000000 0.834833 12.997000 0.000000                 
; New Subcatchment
SUB-1174         RAINGAGE-5       JCT-124          6.68     44.000000 2.054905 2.247811 0.000000                 
; New Subcatchment
SUB-1178         RAINGAGE-5       JCT-324          1.49     84.000000 0.970839 3.862745 0.000000                 
; New Subcatchment
SUB-1182         RAINGAGE-5       JCT-166          1.95     44.000000 1.111143 0.415152 0.000000                 
; New Subcatchment
SUB-1188         RAINGAGE-5       JCT-132          0.29     32.650000 0.426814 3.846119 0.000000                 
; New Subcatchment
SUB-1204         RAINGAGE-5       JCT-322          2.84     61.000000 1.339977 0.454041 0.000000                 
; New Subcatchment
SUB-1226         RAINGAGE-5       JCT-50           2.37     63.000000 1.224888 0.890575 0.000000                 
; New Subcatchment
SUB-1228         RAINGAGE-5       JCT-322          2.11     85.000000 1.153993 0.669294 0.000000                 
; New Subcatchment
SUB-1230         RAINGAGE-5       JCT-68           0.53     65.000000 0.576871 0.928213 0.000000                 
; New Subcatchment
SUB-1232         RAINGAGE-5       JCT-30           1.41     94.000000 0.942642 1.105800 0.000000                 
; New Subcatchment
SUB-1234         RAINGAGE-5       JCT-30           3.24     75.000000 1.429956 10.384348 0.000000                 
; New Subcatchment
SUB-1236         RAINGAGE-5       JCT-46           1.63     62.000000 1.015954 2.153765 0.000000                 
; New Subcatchment
SUB-1238         RAINGAGE-5       JCT-24           3.71     42.000000 1.530015 0.855364 0.000000                 
; New Subcatchment
SUB-1240         RAINGAGE-5       JCT-262          1.56     53.000000 0.993492 0.322602 0.000000                 
; New Subcatchment
SUB-1250         RAINGAGE-5       JCT-320          4.33     84.000000 1.654552 0.144390 0.000000                 
; New Subcatchment
SUB-1252         RAINGAGE-5       JCT-122          9.24     76.000000 2.416791 2.006579 0.000000                 
; New Subcatchment
SUB-1254         RAINGAGE-5       JCT-34           2.53     53.000000 1.264003 0.497797 0.000000                 
; New Subcatchment
SUB-1256         RAINGAGE-5       JCT-32           2.57     96.000000 1.273172 0.765076 0.000000                 
; New Subcatchment
SUB-1258         RAINGAGE-5       JCT-272          2.85     85.000000 1.342896 0.380431 0.000000                 
; New Subcatchment
SUB-1260         RAINGAGE-5       JCT-266          1.58     75.000000 0.999750 0.429497 0.000000                 
; New Subcatchment
SUB-1262         RAINGAGE-5       JCT-48           2.22     80.000000 1.185658 0.040507 0.000000                 
; New Subcatchment
SUB-1264         RAINGAGE-5       JCT-32           2.74     84.000000 1.315573 0.892719 0.000000                 
; New Subcatchment
SUB-1266         RAINGAGE-5       JCT-270          1.09     99.000000 0.829989 0.008254 0.000000                 
; New Subcatchment
SUB-1268         RAINGAGE-5       JCT-274          2.94     96.000000 1.363071 0.690637 0.000000                 
; New Subcatchment
SUB-1274         RAINGAGE-5       JCT-278          1.28     90.000000 0.900365 0.027292 0.000000                 
; New Subcatchment
SUB-1276         RAINGAGE-5       JCT-134          0.51     85.000000 0.568564 0.510191 0.000000                 
; New Subcatchment
SUB-1278         RAINGAGE-5       JCT-278          7.11     74.000000 2.119846 0.608284 0.000000                 
; New Subcatchment
SUB-1282         RAINGAGE-5       JCT-70           2.82     66.000000 1.334032 0.868617 0.000000                 
; New Subcatchment
SUB-1284         RAINGAGE-5       JCT-284          2.39     69.000000 1.228341 0.637086 0.000000                 
; New Subcatchment
SUB-1286         RAINGAGE-5       JCT-204          0.93     89.000000 0.766731 1.441038 0.000000                 
; New Subcatchment
SUB-1288         RAINGAGE-5       JCT-286          0.51     92.000000 0.565443 0.517734 0.000000                 
; New Subcatchment
SUB-1290         RAINGAGE-5       JCT-36           11.78    84.000000 2.728492 2.565012 0.000000                 
; New Subcatchment
SUB-1292         RAINGAGE-5       JCT-288          0.36     76.000000 0.476828 0.140350 0.000000                 
; New Subcatchment
SUB-1298         RAINGAGE-5       JCT-210          7.34     78.000000 2.154013 0.688376 0.000000                 
; New Subcatchment
SUB-1300         RAINGAGE-5       JCT-290          1.70     62.000000 1.035636 0.688093 0.000000                 
; New Subcatchment
SUB-1302         RAINGAGE-5       JCT-136          2.13     48.000000 1.161210 1.030109 0.000000                 
; New Subcatchment
SUB-1304         RAINGAGE-5       JCT-136          1.96     44.000000 1.114141 0.202707 0.000000                 
; New Subcatchment
SUB-1306         RAINGAGE-5       JCT-302          0.87     84.000000 0.742943 0.137014 0.000000                 
; New Subcatchment
SUB-1308         RAINGAGE-5       JCT-354          3.09     44.000000 1.398201 1.648587 0.000000                 
; New Subcatchment
SUB-1310         RAINGAGE-5       JCT-102          0.54     32.650000 0.586248 4.512178 0.000000                 
; New Subcatchment
SUB-1312         RAINGAGE-5       JCT-360          3.34     61.000000 1.451619 15.383000 0.000000                 
; New Subcatchment
SUB-1314         RAINGAGE-5       JCT-294          1.46     63.000000 0.960264 14.158000 0.000000                 
; New Subcatchment
SUB-1320         RAINGAGE-5       JCT-212          3.10     85.000000 1.399113 0.146883 0.000000                 
; New Subcatchment
SUB-1330         RAINGAGE-5       JCT-146          2.36     65.000000 1.221473 4.671815 0.000000                 
; New Subcatchment
SUB-1332         RAINGAGE-5       JCT-212          7.51     94.000000 2.177706 1.161250 0.000000                 
; New Subcatchment
SUB-1334         RAINGAGE-5       JCT-148          0.31     75.000000 0.444199 1.816486 0.000000                 
; New Subcatchment
SUB-1340         RAINGAGE-5       STOR-10          16.43    62.000000 3.222267 0.057285 0.000000                 
; New Subcatchment
SUB-1342         RAINGAGE-5       JCT-232          1.52     42.000000 0.980856 1.553209 0.000000                 
; New Subcatchment
SUB-1344         RAINGAGE-5       JCT-364          5.41     53.000000 1.848379 0.661052 0.000000                 
; New Subcatchment
SUB-1346         RAINGAGE-5       JCT-298          1.83     84.000000 1.074458 0.006155 0.000000                 
; New Subcatchment
SUB-1348         RAINGAGE-5       JCT-296          3.00     76.000000 1.375991 0.279373 0.000000                 
; New Subcatchment
SUB-1350         RAINGAGE-5       JCT-246          6.07     53.000000 1.957672 0.819320 0.000000                 
; New Subcatchment
SUB-1352         RAINGAGE-5       JCT-298          12.76    96.000000 2.839727 1.046209 0.000000                 
; New Subcatchment
SUB-1354         RAINGAGE-5       JCT-244          4.16     85.000000 1.621579 4.794361 0.000000                 
; New Subcatchment
SUB-1356         RAINGAGE-5       JCT-218          5.20     85.000000 1.812116 0.253679 0.000000                 
; New Subcatchment
SUB-1358         RAINGAGE-5       JCT-228          3.51     80.000000 1.489688 3.201862 0.000000                 
; New Subcatchment
SUB-1360         RAINGAGE-5       JCT-218          5.72     90.000000 1.901828 0.538785 0.000000                 
; New Subcatchment
SUB-1362         RAINGAGE-5       JCT-238          2.98     99.000000 1.373121 0.641337 0.000000                 
; New Subcatchment
SUB-1364         RAINGAGE-5       JCT-220          6.42     96.000000 2.013566 0.067193 0.000000                 
; New Subcatchment
SUB-1366         RAINGAGE-5       JCT-238          2.74     90.000000 1.316279 16.930000 0.000000                 
; New Subcatchment
SUB-1368         RAINGAGE-5       JCT-230          0.45     85.000000 0.534753 2.275725 0.000000                 
; New Subcatchment
SUB-1370         RAINGAGE-5       STOR-14          5.38     90.000000 1.842925 13.995000 0.000000                 
; New Subcatchment
SUB-1372         RAINGAGE-5       STOR-16          7.33     66.000000 2.152315 6.910863 0.000000                 
; New Subcatchment
SUB-1374         RAINGAGE-5       JCT-202          120.45   69.000000 8.757651 0.050000 0.000000                 

[SUBAREAS]
;;Subcatchment   N-Imperv   N-Perv     S-Imperv   S-Perv     PctZero    RouteTo    PctRouted 
;;-------------- ---------- ---------- ---------- ---------- ---------- ---------- ----------
SUB-1034         0.020000   0.045000   0.040000   0.150000   25.000000  OUTLET    
SUB-1036         0.020000   0.045000   0.040000   0.150000   25.000000  OUTLET    
SUB-1038         0.020000   0.045000   0.040000   0.150000   25.000000  OUTLET    
SUB-1040         0.020000   0.045000   0.040000   0.150000   25.000000  OUTLET    
SUB-1044         0.020000   0.045000   0.040000   0.150000   25.000000  OUTLET    
SUB-1046         0.020000   0.045000   0.040000   0.150000   25.000000  OUTLET    
SUB-1048         0.020000   0.045000   0.040000   0.150000   25.000000  OUTLET    
SUB-1050         0.020000   0.045000   0.040000   0.150000   25.000000  OUTLET    
SUB-1052         0.020000   0.045000   0.040000   0.150000   25.000000  OUTLET    
SUB-1054         0.020000   0.045000   0.040000   0.150000   25.000000  OUTLET    
SUB-1056         0.020000   0.045000   0.040000   0.150000   25.000000  OUTLET    
SUB-1058         0.020000   0.045000   0.040000   0.150000   25.000000  OUTLET    
SUB-1060         0.020000   0.045000   0.040000   0.150000   25.000000  OUTLET    
SUB-1062         0.020000   0.045000   0.040000   0.150000   25.000000  OUTLET    
SUB-1086         0.020000   0.045000   0.040000   0.150000   25.000000  OUTLET    
SUB-1116         0.020000   0.045000   0.040000   0.150000   25.000000  OUTLET    
SUB-1134         0.020000   0.045000   0.040000   0.150000   25.000000  OUTLET    
SUB-1136         0.020000   0.045000   0.040000   0.150000   25.000000  OUTLET    
SUB-1138         0.020000   0.045000   0.040000   0.150000   25.000000  OUTLET    
SUB-1142         0.020000   0.045000   0.040000   0.150000   25.000000  OUTLET    
SUB-1144         0.020000   0.045000   0.040000   0.150000   25.000000  OUTLET    
SUB-1146         0.020000   0.045000   0.040000   0.150000   25.000000  OUTLET    
SUB-1150         0.020000   0.045000   0.040000   0.150000   25.000000  OUTLET    
SUB-1152         0.020000   0.045000   0.040000   0.150000   25.000000  OUTLET    
SUB-1154         0.020000   0.045000   0.040000   0.150000   25.000000  OUTLET    
SUB-1156         0.020000   0.045000   0.040000   0.150000   25.000000  OUTLET    
SUB-1158         0.020000   0.045000   0.040000   0.150000   25.000000  OUTLET    
SUB-1162         0.020000   0.045000   0.040000   0.150000   25.000000  OUTLET    
SUB-1164         0.020000   0.045000   0.040000   0.150000   25.000000  OUTLET    
SUB-1166         0.020000   0.045000   0.040000   0.150000   25.000000  OUTLET    
SUB-1168         0.020000   0.045000   0.040000   0.150000   25.000000  OUTLET    
SUB-1170         0.020000   0.045000   0.040000   0.150000   25.000000  OUTLET    
SUB-1172         0.020000   0.045000   0.040000   0.150000   25.000000  OUTLET    
SUB-1174         0.020000   0.045000   0.040000   0.150000   25.000000  OUTLET    
SUB-1178         0.020000   0.045000   0.040000   0.150000   25.000000  OUTLET    
SUB-1182         0.020000   0.045000   0.040000   0.150000   25.000000  OUTLET    
SUB-1188         0.020000   0.045000   0.040000   0.150000   25.000000  OUTLET    
SUB-1204         0.020000   0.045000   0.040000   0.150000   25.000000  OUTLET    
SUB-1226         0.020000   0.045000   0.040000   0.150000   25.000000  OUTLET    
SUB-1228         0.020000   0.045000   0.040000   0.150000   25.000000  OUTLET    
SUB-1230         0.020000   0.045000   0.040000   0.150000   25.000000  OUTLET    
SUB-1232         0.020000   0.045000   0.040000   0.150000   25.000000  OUTLET    
SUB-1234         0.020000   0.045000   0.040000   0.150000   25.000000  OUTLET    
SUB-1236         0.020000   0.045000   0.040000   0.150000   25.000000  OUTLET    
SUB-1238         0.020000   0.045000   0.040000   0.150000   25.000000  OUTLET    
SUB-1240         0.020000   0.045000   0.040000   0.150000   25.000000  OUTLET    
SUB-1250         0.020000   0.045000   0.040000   0.150000   25.000000  OUTLET    
SUB-1252         0.020000   0.045000   0.040000   0.150000   25.000000  OUTLET    
SUB-1254         0.020000   0.045000   0.040000   0.150000   25.000000  OUTLET    
SUB-1256         0.020000   0.045000   0.040000   0.150000   25.000000  OUTLET    
SUB-1258         0.020000   0.045000   0.040000   0.150000   25.000000  OUTLET    
SUB-1260         0.020000   0.045000   0.040000   0.150000   25.000000  OUTLET    
SUB-1262         0.020000   0.045000   0.040000   0.150000   25.000000  OUTLET    
SUB-1264         0.020000   0.045000   0.040000   0.150000   25.000000  OUTLET    
SUB-1266         0.020000   0.045000   0.040000   0.150000   25.000000  OUTLET    
SUB-1268         0.020000   0.045000   0.040000   0.150000   25.000000  OUTLET    
SUB-1274         0.020000   0.045000   0.040000   0.150000   25.000000  OUTLET    
SUB-1276         0.020000   0.045000   0.040000   0.150000   25.000000  OUTLET    
SUB-1278         0.020000   0.045000   0.040000   0.150000   25.000000  OUTLET    
SUB-1282         0.020000   0.045000   0.040000   0.150000   25.000000  OUTLET    
SUB-1284         0.020000   0.045000   0.040000   0.150000   25.000000  OUTLET    
SUB-1286         0.020000   0.045000   0.040000   0.150000   25.000000  OUTLET    
SUB-1288         0.020000   0.045000   0.040000   0.150000   25.000000  OUTLET    
SUB-1290         0.020000   0.045000   0.040000   0.150000   25.000000  OUTLET    
SUB-1292         0.020000   0.045000   0.040000   0.150000   25.000000  OUTLET    
SUB-1298         0.020000   0.045000   0.040000   0.150000   25.000000  OUTLET    
SUB-1300         0.020000   0.045000   0.040000   0.150000   25.000000  OUTLET    
SUB-1302         0.020000   0.045000   0.040000   0.150000   25.000000  OUTLET    
SUB-1304         0.020000   0.045000   0.040000   0.150000   25.000000  OUTLET    
SUB-1306         0.020000   0.045000   0.040000   0.150000   25.000000  OUTLET    
SUB-1308         0.020000   0.045000   0.040000   0.150000   25.000000  OUTLET    
SUB-1310         0.020000   0.045000   0.040000   0.150000   25.000000  OUTLET    
SUB-1312         0.020000   0.045000   0.040000   0.150000   25.000000  OUTLET    
SUB-1314         0.020000   0.045000   0.040000   0.150000   25.000000  OUTLET    
SUB-1320         0.020000   0.045000   0.040000   0.150000   25.000000  OUTLET    
SUB-1330         0.020000   0.045000   0.040000   0.150000   25.000000  OUTLET    
SUB-1332         0.020000   0.045000   0.040000   0.150000   25.000000  OUTLET    
SUB-1334         0.020000   0.045000   0.040000   0.150000   25.000000  OUTLET    
SUB-1340         0.020000   0.045000   0.040000   0.150000   25.000000  OUTLET    
SUB-1342         0.020000   0.045000   0.040000   0.150000   25.000000  OUTLET    
SUB-1344         0.020000   0.045000   0.040000   0.150000   25.000000  OUTLET    
SUB-1346         0.020000   0.045000   0.040000   0.150000   25.000000  OUTLET    
SUB-1348         0.020000   0.045000   0.040000   0.150000   25.000000  OUTLET    
SUB-1350         0.020000   0.045000   0.040000   0.150000   25.000000  OUTLET    
SUB-1352         0.020000   0.045000   0.040000   0.150000   25.000000  OUTLET    
SUB-1354         0.020000   0.045000   0.040000   0.150000   25.000000  OUTLET    
SUB-1356         0.020000   0.045000   0.040000   0.150000   25.000000  OUTLET    
SUB-1358         0.020000   0.045000   0.040000   0.150000   25.000000  OUTLET    
SUB-1360         0.020000   0.045000   0.040000   0.150000   25.000000  OUTLET    
SUB-1362         0.020000   0.045000   0.040000   0.150000   25.000000  OUTLET    
SUB-1364         0.020000   0.045000   0.040000   0.150000   25.000000  OUTLET    
SUB-1366         0.020000   0.045000   0.040000   0.150000   25.000000  OUTLET    
SUB-1368         0.020000   0.045000   0.040000   0.150000   25.000000  OUTLET    
SUB-1370         0.020000   0.045000   0.040000   0.150000   25.000000  OUTLET    
SUB-1372         0.020000   0.045000   0.040000   0.150000   25.000000  OUTLET    
SUB-1374         0.020000   0.045000   0.040000   0.150000   25.000000  OUTLET    

[INFILTRATION]
;;Subcatchment   MaxRate    MinRate    Decay      DryTime    MaxInfil  
;;-------------- ---------- ---------- ---------- ---------- ----------
SUB-1034         3.0        0.5        4          7          0         
SUB-1036         3.0        0.5        4          7          0         
SUB-1038         3.0        0.5        4          7          0         
SUB-1040         3.0        0.5        4          7          0         
SUB-1044         3.0        0.5        4          7          0         
SUB-1046         3.0        0.5        4          7          0         
SUB-1048         3.0        0.5        4          7          0         
SUB-1050         3.0        0.5        4          7          0         
SUB-1052         3.0        0.5        4          7          0         
SUB-1054         3.0        0.5        4          7          0         
SUB-1056         3.0        0.5        4          7          0         
SUB-1058         3.0        0.5        4          7          0         
SUB-1060         3.0        0.5        4          7          0         
SUB-1062         3.0        0.5        4          7          0         
SUB-1086         3.0        0.5        4          7          0         
SUB-1116         3.0        0.5        4          7          0         
SUB-1134         3.0        0.5        4          7          0         
SUB-1136         3.0        0.5        4          7          0         
SUB-1138         3.0        0.5        4          7          0         
SUB-1142         3.0        0.5        4          7          0         
SUB-1144         3.0        0.5        4          7          0         
SUB-1146         3.0        0.5        4          7          0         
SUB-1150         3.0        0.5        4          7          0         
SUB-1152         3.0        0.5        4          7          0         
SUB-1154         3.0        0.5        4          7          0         
SUB-1156         3.0        0.5        4          7          0         
SUB-1158         3.0        0.5        4          7          0         
SUB-1162         3.0        0.5        4          7          0         
SUB-1164         3.0        0.5        4          7          0         
SUB-1166         3.0        0.5        4          7          0         
SUB-1168         3.0        0.5        4          7          0         
SUB-1170         3.0        0.5        4          7          0         
SUB-1172         3.0        0.5        4          7          0         
SUB-1174         3.0        0.5        4          7          0         
SUB-1178         3.0        0.5        4          7          0         
SUB-1182         3.0        0.5        4          7          0         
SUB-1188         3.0        0.5        4          7          0         
SUB-1204         3.0        0.5        4          7          0         
SUB-1226         3.0        0.5        4          7          0         
SUB-1228         3.0        0.5        4          7          0         
SUB-1230         3.0        0.5        4          7          0         
SUB-1232         3.000000   0.100000   0.050000   5.000000   0.000000  
SUB-1234         3.000000   0.100000   0.050000   5.000000   0.000000  
SUB-1236         3.0        0.5        4          7          0         
SUB-1238         3.0        0.5        4          7          0         
SUB-1240         3.0        0.5        4          7          0         
SUB-1250         3.0        0.5        4          7          0         
SUB-1252         3.0        0.5        4          7          0         
SUB-1254         3.0        0.5        4          7          0         
SUB-1256         3.000000   0.100000   0.050000   5.000000   0.000000  
SUB-1258         3.0        0.5        4          7          0         
SUB-1260         3.0        0.5        4          7          0         
SUB-1262         3.0        0.5        4          7          0         
SUB-1264         3.000000   0.100000   0.050000   5.000000   0.000000  
SUB-1266         3.000000   0.100000   0.050000   5.000000   0.000000  
SUB-1268         3.0        0.5        4          7          0         
SUB-1274         3.000000   0.100000   0.050000   5.000000   0.000000  
SUB-1276         3.0        0.5        4          7          0         
SUB-1278         3.000000   0.100000   0.050000   5.000000   0.000000  
SUB-1282         3.0        0.5        4          7          0         
SUB-1284         3.0        0.5        4          7          0         
SUB-1286         3.0        0.5        4          7          0         
SUB-1288         3.0        0.5        4          7          0         
SUB-1290         3.0        0.5        4          7          0         
SUB-1292         3.0        0.5        4          7          0         
SUB-1298         3.0        0.5        4          7          0         
SUB-1300         3.0        0.5        4          7          0         
SUB-1302         3.000000   0.100000   0.050000   5.000000   0.000000  
SUB-1304         3.000000   0.100000   0.050000   5.000000   0.000000  
SUB-1306         3.0        0.5        4          7          0         
SUB-1308         3.0        0.5        4          7          0         
SUB-1310         3.0        0.5        4          7          0         
SUB-1312         3.0        0.5        4          7          0         
SUB-1314         3.0        0.5        4          7          0         
SUB-1320         3.0        0.5        4          7          0         
SUB-1330         3.0        0.5        4          7          0         
SUB-1332         3.0        0.5        4          7          0         
SUB-1334         3.0        0.5        4          7          0         
SUB-1340         3.000000   0.100000   0.050000   5.000000   0.000000  
SUB-1342         3.0        0.5        4          7          0         
SUB-1344         3.0        0.5        4          7          0         
SUB-1346         3.0        0.5        4          7          0         
SUB-1348         3.0        0.5        4          7          0         
SUB-1350         3.0        0.5        4          7          0         
SUB-1352         3.0        0.5        4          7          0         
SUB-1354         3.0        0.5        4          7          0         
SUB-1356         3.0        0.5        4          7          0         
SUB-1358         3.0        0.5        4          7          0         
SUB-1360         3.0        0.5        4          7          0         
SUB-1362         3.0        0.5        4          7          0         
SUB-1364         3.0        0.5        4          7          0         
SUB-1366         3.0        0.5        4          7          0         
SUB-1368         3.0        0.5        4          7          0         
SUB-1370         3.0        0.5        4          7          0         
SUB-1372         3.0        0.5        4          7          0         
SUB-1374         3.0        0.5        4          7          0         

[JUNCTIONS]
;;Name           Elevation  MaxDepth   InitDepth  SurDepth   Aponded   
;;-------------- ---------- ---------- ---------- ---------- ----------
; New Junction
JCT-10           5298.887000 4.500000   0.000000   0.000000   0.000000  
; New Junction