[TITLE]
Scenario Run :  BASE
SCE Site Old Port Road Full Water Balance RUN

[OPTIONS]
;Option and Files Scenario Set: BASE, Base Simulation Options
FLOW_UNITS	LPS
INFILTRATION	HORTON
FLOW_ROUTING	DYNWAVE
ALLOW_PONDING	YES
DRY_DAYS	0.000000
SKIP_STEADY_STATE 	NO
IGNORE_RAINFALL	NO
IGNORE_SNOWMELT	NO
IGNORE_GROUNDWATER	NO
IGNORE_QUALITY	NO
FORCE_MAIN_EQUATION	H-W
LINK_OFFSETS	DEPTH
MIN_SLOPE	0.000000
SYS_FLOW_TOL	5
LAT_FLOW_TOL	5
START_DATE	01/01/1990
START_TIME	00:00
END_DATE	12/31/1990
END_TIME	00:00
REPORT_START_DATE	01/01/1990
REPORT_START_TIME	00:00
SWEEP_START	01/01
SWEEP_END	12/31
WET_STEP	00:05:00
DRY_STEP	00:05:00
ROUTING_STEP	5
REPORT_STEP	00:15:00
INERTIAL_DAMPING	NONE
VARIABLE_STEP	0.750000
MINIMUM_STEP	0.000000
LENGTHENING_STEP	5
MIN_SURFAREA	1.140000
NORMAL_FLOW_LIMITED	SLOPE
MAX_TRIALS	8
HEAD_TOLERANCE	0.000100

[FILES]

[RAINGAGES]
PORT_KEMBLA-1990	VOLUME	1.000000	1.000000	FILE	"C:\Users\dickinre\Downloads\KEMBLA_1990_swmm.txt"	68131	MM

[HYDROGRAPHS]

[EVAPORATION]
MONTHLY	6.300000	5.700000	4.700000	4.000000	3.100000	2.900000	3.100000	4.100000	5.000000	5.700000	6.100000	6.900000
DRY_ONLY	NO

[TEMPERATURE]

[ADJUSTMENTS]

[SUBCATCHMENTS]
CULDESAC	PORT_KEMBLA-1990	1PB	0.480000	95.000000	20.000000	0.500000	0.000000
DRIVEWAY_ENTRY	PORT_KEMBLA-1990	3	0.200000	95.000000	25.000000	0.500000	0.000000
DRV_WEIGHBRIDGE	PORT_KEMBLA-1990	9	0.050000	90.000000	25.000000	0.500000	0.000000
DRV_WEIGH_BRIDGE	PORT_KEMBLA-1990	12	0.005000	90.000000	25.000000	0.500000	0.000000
DRV_WHEELWASH	PORT_KEMBLA-1990	7	0.100000	90.000000	40.000000	0.500000	0.000000
MOUND_S	PORT_KEMBLA-1990	3	0.060000	10.000000	100.000000	0.500000	0.000000
OFF_CARPARK	PORT_KEMBLA-1990	CHRISTY_RD_PIT	0.100000	85.000000	5.000000	0.500000	0.000000
SITE-W_EDGE	PORT_KEMBLA-1990	OLD_PORT_RD_PIT	0.450000	15.000000	250.000000	0.500000	0.000000
STOCKPILE_1	PORT_KEMBLA-1990	2	0.430000	90.000000	40.000000	0.500000	0.000000
STOCKPILE_2	PORT_KEMBLA-1990	1	0.600000	95.000000	90.000000	0.500000	0.000000
STOCKPILE_3	PORT_KEMBLA-1990	1PA	0.500000	95.000000	90.000000	0.500000	100.000000

[SUBAREAS]
CULDESAC	0.013000	0.100000	0.050000	0.050000	25.000000	OUTLET
DRIVEWAY_ENTRY	0.013000	0.100000	0.050000	0.050000	25.000000	OUTLET
DRV_WEIGHBRIDGE	0.013000	0.100000	0.050000	0.050000	25.000000	OUTLET
DRV_WEIGH_BRIDGE	0.010000	0.100000	0.050000	0.050000	25.000000	OUTLET
DRV_WHEELWASH	0.015000	0.100000	0.050000	0.050000	25.000000	OUTLET
MOUND_S	0.010000	0.100000	0.050000	0.050000	25.000000	OUTLET
OFF_CARPARK	0.010000	0.100000	0.050000	0.050000	25.000000	OUTLET
SITE-W_EDGE	0.010000	0.100000	0.050000	0.050000	25.000000	OUTLET
STOCKPILE_1	0.015000	0.100000	0.050000	0.050000	25.000000	OUTLET
STOCKPILE_2	0.010000	0.100000	0.050000	0.050000	25.000000	OUTLET
STOCKPILE_3	0.015000	0.100000	0.050000	0.050000	25.000000	OUTLET

[INFILTRATION]
CULDESAC	3.000000	0.500000	4.000000	7.000000	0.000000
DRIVEWAY_ENTRY	3.000000	0.500000	4.000000	7.000000	0.000000
DRV_WEIGHBRIDGE	3.000000	0.500000	4.000000	7.000000	0.000000
DRV_WEIGH_BRIDGE	3.000000	0.500000	4.000000	7.000000	0.000000
DRV_WHEELWASH	3.000000	0.500000	4.000000	7.000000	0.000000
MOUND_S	3.000000	0.500000	4.000000	7.000000	0.000000
OFF_CARPARK	3.000000	0.500000	4.000000	7.000000	0.000000
SITE-W_EDGE	3.000000	0.500000	4.000000	7.000000	0.000000
STOCKPILE_1	3.000000	0.500000	4.000000	7.000000	0.000000
STOCKPILE_2	3.000000	0.500000	4.000000	7.000000	0.000000
STOCKPILE_3	3.000000	0.500000	4.000000	7.000000	0.000000

[AQUIFERS]

[GROUNDWATER]

[GWF]

[SNOWPACKS]

[LID_CONTROLS]
BIOFILTRATIONTANK200	BC
BIOFILTRATIONTANK200	SURFACE	0.000000	0.000000	0.100000	1.000000	5.000000
BIOFILTRATIONTANK200	SOIL	500.000000	0.500000	0.200000	0.100000	0.500000	10.000000	3.500000
BIOFILTRATIONTANK200	STORAGE	150.000000	0.750000	0.500000	0.000000
BIOFILTRATIONTANK200	DRAIN	0.000000	0.500000	6.000000	6.000000


[JUNCTIONS]
1	5.100000	1.000000	0.000000	0.000000	0.000000
10	4.600000	1.000000	0.000000	0.000000	0.000000
12	3.300000	1.500000	0.500000	0.000000	0.000000
13	3.050000	1.500000	0.000000	0.000000	0.000000
1PA	5.100000	1.000000	0.000000	0.000000	0.000000
1PB	4.700000	1.000000	0.000000	0.000000	0.000000
1PC	4.500000	1.000000	0.000000	0.000000	0.000000
2	4.400000	1.000000	0.000000	0.000000	0.000000
3	4.100000	0.500000	0.000000	0.500000	1000.000000
7	4.800000	1.000000	0.000000	0.000000	0.000000
9	4.600000	1.000000	0.000000	0.000000	0.000000
CHRISTY_RD_PIT	3.000000	1.370000	0.000000	0.500000	500.000000
OLD_PORT_RD_PIT	1.820000	1.600000	0.000000	0.500000	100.000000
SINK	1.700000	2.800000	0.000000	0.500000	1000.000000

[OUTFALLS]
OUTLET	1.500000	FREE	NO
; Re-Use Sprinklers Routed to Stockpile
PUMP_OUTFALL1	0.000000	FREE	NO	STOCKPILE_3
; Re-Use Sprinklers Routed to Stockpile
PUMP_OUTFALL_2	0.000000	FREE	NO	STOCKPILE_2

[DIVIDERS]

[STORAGE]
BF1	3.150000	2.000000	0.600000	TABULAR	40MX5M_BIOFILT	0.000000	0.000000
BF2	3.000000	2.000000	0.600000	TABULAR	40MX5M_BIOFILT	0.000000	0.000000
BF3	3.800000	1.500000	0.600000	TABULAR	27MX5MTANK	0.000000	0.000000
FF1	3.150000	2.000000	0.600000	TABULAR	40MX5MFFTANK	0.000000	0.000000
FF2	3.000000	2.100000	0.600000	TABULAR	40MX5MFFTANK	0.000000	0.000000
FF3	3.800000	1.200000	0.800000	TABULAR	20MX5MTANK	0.000000	0.000000
OF1	3.150000	2.000000	0.100000	TABULAR	BIOF_PUMPPIT	0.000000	0.000000
OF2	3.000000	2.000000	0.000000	TABULAR	BIOF_PUMPPIT	0.000000	0.000000
OF3	3.800000	2.000000	0.000000	TABULAR	BIOF_PUMPPIT	0.000000	0.000000
PW1	3.150000	2.000000	0.600000	TABULAR	BIOF_PUMPPIT	0.000000	0.000000
PW2	3.000000	2.000000	0.000000	TABULAR	BIOF_PUMPPIT	0.000000	0.000000
WT1	4.000000	4.000000	0.000000	TABULAR	REUSE_STORAGETANK	0.000000	0.000000
WT2	4.000000	2.500000	0.000000	TABULAR	REUSE_STORAGETANK	0.000000	0.000000

[CONDUITS]
12	OLD_PORT_RD_PIT	SINK	50.000000	0.012000	0.000000	0.000000	0.000000	0.000000
18	OF1	13	35.000000	0.010000	0.000000	0.000000	0.000000	0.000000
1DN1	1PA	1PB	75.000000	0.015000	0.000000	0.000000	0.000000	0.000000
1DN2	1PB	1PC	57.000000	0.015000	0.000000	0.000000	0.000000	0.000000
21	12	CHRISTY_RD_PIT	10.000000	0.015000	0.000000	0.000000	0.000000	0.000000
22	CHRISTY_RD_PIT	SINK	150.000000	0.013000	0.000000	0.000000	0.000000	0.000000
23	OF2	OLD_PORT_RD_PIT	10.000000	0.012000	0.000000	0.050000	0.000000	0.000000
25	13	OLD_PORT_RD_PIT	120.000000	0.012000	0.000000	0.000000	0.000000	0.000000
26	13	OLD_PORT_RD_PIT	125.000000	0.030000	1.400000	1.600000	0.000000	0.000000
27	OLD_PORT_RD_PIT	SINK	25.000000	0.020000	1.850000	2.800000	0.000000	0.000000
DE1	1	2	120.000000	0.015000	0.000000	0.000000	0.000000	0.000000
DE2	2	3	70.000000	0.015000	0.000000	0.000000	0.000000	0.000000
DNE1	7	9	50.000000	0.015000	0.000000	0.000000	0.000000	0.000000
DSE1	10	12	100.000000	0.015000	0.000000	1.000000	0.000000	0.000000
OFLOW1	1PC	13	100.000000	0.020000	0.400000	0.000000	0.000000	0.000000
OFLOW_2	3	SINK	25.000000	0.020000	0.600000	0.000000	0.000000	0.000000
OFLOW_3	9	CHRISTY_RD_PIT	200.000000	0.025000	0.400000	0.000000	0.000000	0.000000
TOTALSITEOUTFLOW	SINK	OUTLET	50.000000	0.013000	0.000000	0.000000	0.000000	0.000000
UF1A	FF1	BF1	0.300000	0.013000	0.600000	0.595000	0.000000	0.000000
UF2A	FF2	BF2	0.300000	0.015000	0.600000	0.597000	0.000000	0.000000

[PUMPS]
P1	PW1	WT1	PUMP_2M_5L/S	OFF	1.000000	0.300000
; Pumps from Re-Use tanks to stockpile sprinklers
P1REUSE	WT1	PUMP_OUTFALL1	PUMP_2M_10LS	ON	0.600000	0.100000
P2	PW2	WT2	PUMP_2M_5L/S	OFF	1.000000	0.300000
; Pumps from Re-Use tanks to stockpile sprinklers
P2REUSE	WT2	PUMP_OUTFALL_2	PUMP_2M_10LS	ON	0.600000	0.100000

[ORIFICES]
UF1B	BF1	PW1	BOTTOM	0.000000	0.650000	NO
UF2B	BF2	PW2	BOTTOM	0.000000	0.650000	NO
UF3A	FF3	BF3	SIDE	0.500000	0.650000	NO
UF3B	BF3	OF3	BOTTOM	0.000000	0.650000	NO

[WEIRS]
30	OF3	10	TRANSVERSE	0.800000	1.700000	NO	0	0.000000	YES
IF1	1PC	FF1	TRANSVERSE	0.000000	1.700000	NO	0	0.000000	YES
; This is the inlet into First Flush Tank 2
IF2	3	FF2	TRANSVERSE	0.000000	1.700000	NO	0	0.000000	YES
IF3	9	FF3	TRANSVERSE	0.000000	1.700000	NO	0	0.000000	YES
OF1A	FF1	BF1	TRANSVERSE	0.000000	1.700000	NO	0	0.000000	YES
OF1B	BF1	OF1	TRANSVERSE	1.350000	1.700000	YES	0	0.000000	YES
OF2A	FF2	BF2	TRANSVERSE	1.400000	1.700000	NO	0	0.000000	YES
OF2B	BF2	OF2	TRANSVERSE	1.600000	1.700000	NO	0	0.000000	YES
OF3A	FF3	BF3	TRANSVERSE	0.800000	1.700000	NO	0	0.000000	YES
OF3B	BF3	OF3	TRANSVERSE	0.800000	1.700000	NO	0	0.000000	YES

[XSECTIONS]
12	CIRCULAR	1.000000	0.000000	0.000000	0.000000	1	0
18	CIRCULAR	0.225000	0.000000	0.000000	0.000000	1	0
1DN1	TRIANGULAR	0.500000	5.000000	0.000000	0.000000	1	0
1DN2	TRIANGULAR	0.500000	8.000000	0.000000	0.000000	1	0
21	CIRCULAR	0.500000	0.000000	0.000000	0.000000	1	0
22	CIRCULAR	0.600000	0.000000	0.000000	0.000000	1	0
23	CIRCULAR	0.225000	0.000000	0.000000	0.000000	1	0
25	CIRCULAR	0.375000	0.000000	0.000000	0.000000	1	0
26	TRAPEZOIDAL	1.000000	6.000000	6.000000	6.000000	1	0
27	TRAPEZOIDAL	1.000000	6.000000	6.000000	6.000000	1	0
DE1	TRIANGULAR	0.500000	10.000000	0.000000	0.000000	1	0
DE2	TRIANGULAR	0.500000	12.000000	0.000000	0.000000	1	0
DNE1	TRIANGULAR	0.500000	2.000000	0.000000	0.000000	1	0
DSE1	TRIANGULAR	0.500000	2.000000	0.000000	0.000000	1	0
OFLOW1	TRAPEZOIDAL	1.000000	3.000000	4.000000	4.000000	1	0
OFLOW_2	TRAPEZOIDAL	1.000000	4.000000	4.000000	4.000000	1	0
OFLOW_3	TRAPEZOIDAL	1.000000	3.000000	4.000000	4.000000	1	0
TOTALSITEOUTFLOW	CIRCULAR	1.000000	0.000000	0.000000	0.000000	1	0
UF1A	CIRCULAR	0.150000	0.000000	0.000000	0.000000	6	0
UF2A	CIRCULAR	0.150000	0.000000	0.000000	0.000000	6	0
30	RECT_OPEN	1.000000	0.600000	0.000000	0.000000
IF1	RECT_OPEN	1.000000	0.800000	0.000000	0.000000
IF2	RECT_OPEN	1.000000	0.800000	0.000000	0.000000
IF3	RECT_OPEN	0.500000	0.450000	0.000000	0.000000
OF1A	RECT_OPEN	1.350000	1.000000	0.000000	0.000000
OF1B	RECT_OPEN	1.000000	1.000000	0.000000	0.000000
OF2A	RECT_OPEN	1.000000	2.000000	0.000000	0.000000
OF2B	RECT_OPEN	0.500000	0.800000	0.000000	0.000000
OF3A	RECT_OPEN	0.500000	1.000000	0.000000	0.000000
OF3B	RECT_OPEN	1.000000	0.450000	0.000000	0.000000
UF1B	RECT_CLOSED	0.100000	1.000000	0.000000	0.000000
UF2B	RECT_CLOSED	0.100000	1.000000	0.000000	0.000000
UF3A	RECT_CLOSED	0.100000	1.000000	0.000000	0.000000
UF3B	CIRCULAR	0.200000	0.000000	0.000000	0.000000

[TRANSECTS]

[LOSSES]
12	0.000000	0.000000	0.000000	NO	0.000000
18	0.000000	0.000000	0.000000	NO	0.000000
1DN1	0.000000	0.000000	0.000000	NO	0.000000
1DN2	0.000000	0.000000	0.000000	NO	0.000000
21	0.000000	0.000000	0.000000	NO	0.000000
22	0.000000	0.000000	0.000000	NO	0.000000
23	0.000000	0.000000	0.000000	NO	0.000000
25	0.000000	0.000000	0.000000	NO	0.000000
26	0.000000	0.000000	0.000000	NO	0.000000
27	0.000000	0.000000	0.000000	NO	0.000000
DE1	0.000000	0.000000	0.000000	NO	0.000000
DE2	0.000000	0.000000	0.000000	NO	0.000000
DNE1	0.000000	0.000000	0.000000	NO	0.000000
DSE1	0.000000	0.000000	0.000000	NO	0.000000
OFLOW1	0.000000	0.000000	0.000000	NO	0.000000
OFLOW_2	0.000000	0.000000	0.000000	NO	0.000000
OFLOW_3	0.000000	0.000000	0.000000	NO	0.000000
TOTALSITEOUTFLOW	0.000000	0.000000	0.000000	NO	0.000000
UF1A	0.000000	0.000000	0.000000	NO	0.000000
UF2A	0.000000	0.000000	0.000000	NO	0.000000

[CONTROLS]
RULE R1A
IF NODE WT1 DEPTH > 1.950000
THEN PUMP P1 STATUS = OFF


RULE R1B
IF NODE WT1 DEPTH < 1.900000
AND NODE PW1 DEPTH > 0.500000
THEN PUMP P1 STATUS = ON


RULE RPREUSE1ON
IF NODE WT1 DEPTH > 0.500000
AND CONDUIT DNE1 FLOW = 0.000000
THEN PUMP P1REUSE STATUS = ON


RULE RPREUSE1OFF
IF CONDUIT DNE1 FLOW > 0.100000
THEN PUMP P1REUSE STATUS = OFF


RULE R2A
IF NODE WT2 DEPTH > 1.950000
THEN PUMP P2 STATUS = OFF


RULE R2B
IF NODE WT2 DEPTH < 1.900000
AND NODE PW2 DEPTH > 0.500000
THEN PUMP P2 STATUS = ON


RULE RPREUSE2ON
IF NODE WT2 DEPTH > 0.500000
AND CONDUIT DNE1 FLOW = 0.000000
THEN PUMP P2REUSE STATUS = ON


RULE RPREUSE2OFF
IF CONDUIT DNE1 FLOW > 0.100000
THEN PUMP P2REUSE STATUS = OFF



[POLLUTANTS]
ZINC	UG/L	0.000000	0.000000	0.000000	0.000000	NO	*	0.000000	0.000000	0.000000
SULPHATE	MG/L	0.000000	0.000000	0.000000	0.000000	NO	*	0.000000	0.000000	0.000000
IRON	UG/L	0.000000	0.000000	0.000000	0.000000	NO	*	0.000000	0.000000	0.000000
TSS	MG/L	0.000000	0.000000	0.000000	0.000000	NO	*	0.000000	0.000000	0.000000
TN	MG/L	0.000000	0.000000	0.000000	0.000000	NO	*	0.000000	0.000000	0.000000
TP	MG/L	0.000000	0.000000	0.000000	0.000000	NO	*	0.000000	0.000000	0.000000

[LANDUSES]
GBFS_STOCKPILE	0.000000	0.000000	0.000000
; Physical Stockpile of Gypsum
GYPSUM_STOCKPILE	0.000000	0.000000	0.000000
SITE_ROADWAY	0.000000	0.000000	0.000000
; Berm around the stockpiled Area
GRASSED_BERM	0.000000	0.000000	0.000000

[COVERAGES]
CULDESAC	SITE_ROADWAY	90.000000
CULDESAC	GRASSED_BERM	10.000000
DRIVEWAY_ENTRY	SITE_ROADWAY	95.000000
DRIVEWAY_ENTRY	GRASSED_BERM	5.000000
DRV_WEIGHBRIDGE	SITE_ROADWAY	95.000000
DRV_WEIGHBRIDGE	GRASSED_BERM	5.000000
DRV_WEIGH_BRIDGE	SITE_ROADWAY	40.000000
DRV_WEIGH_BRIDGE	GRASSED_BERM	60.000000
DRV_WHEELWASH	SITE_ROADWAY	95.000000
DRV_WHEELWASH	GRASSED_BERM	5.000000
MOUND_S	SITE_ROADWAY	5.000000
MOUND_S	GRASSED_BERM	95.000000
OFF_CARPARK	SITE_ROADWAY	90.000000
OFF_CARPARK	GRASSED_BERM	10.000000
SITE-W_EDGE	SITE_ROADWAY	10.000000
SITE-W_EDGE	GRASSED_BERM	90.000000
STOCKPILE_1	GBFS_STOCKPILE	80.000000
STOCKPILE_1	SITE_ROADWAY	20.000000
STOCKPILE_2	GBFS_STOCKPILE	80.000000
STOCKPILE_2	SITE_ROADWAY	20.000000
STOCKPILE_3	GYPSUM_STOCKPILE	80.000000
STOCKPILE_3	SITE_ROADWAY	20.000000

[BUILDUP]
GBFS_STOCKPILE	ZINC	NONE	0.000000	0.000000	0.000000	AREA
GBFS_STOCKPILE	SULPHATE	NONE	0.000000	0.000000	0.000000	AREA
GBFS_STOCKPILE	IRON	NONE	0.000000	0.000000	0.000000	AREA
GBFS_STOCKPILE	TSS	NONE	0.000000	0.000000	0.000000	AREA
GBFS_STOCKPILE	TN	NONE	0.000000	0.000000	0.000000	AREA
GBFS_STOCKPILE	TP	NONE	0.000000	0.000000	0.000000	AREA
GRASSED_BERM	ZINC	NONE	0.000000	0.000000	0.000000	AREA
GRASSED_BERM	SULPHATE	NONE	0.000000	0.000000	0.000000	AREA
GRASSED_BERM	IRON	NONE	0.000000	0.000000	0.000000	AREA
GRASSED_BERM	TSS	NONE	0.000000	0.000000	0.000000	AREA
GRASSED_BERM	TN	NONE	0.000000	0.000000	0.000000	AREA
GRASSED_BERM	TP	NONE	0.000000	0.000000	0.000000	AREA
GYPSUM_STOCKPILE	ZINC	NONE	0.000000	0.000000	0.000000	AREA
GYPSUM_STOCKPILE	SULPHATE	NONE	0.000000	0.000000	0.000000	AREA
GYPSUM_STOCKPILE	IRON	NONE	0.000000	0.000000	0.000000	AREA
GYPSUM_STOCKPILE	TSS	NONE	0.000000	0.000000	0.000000	AREA
GYPSUM_STOCKPILE	TN	NONE	0.000000	0.000000	0.000000	AREA
GYPSUM_STOCKPILE	TP	NONE	0.000000	0.000000	0.000000	AREA
SITE_ROADWAY	ZINC	NONE	0.000000	0.000000	0.000000	AREA
SITE_ROADWAY	SULPHATE	NONE	0.000000	0.000000	0.000000	AREA
SITE_ROADWAY	IRON	NONE	0.000000	0.000000	0.000000	AREA
SITE_ROADWAY	TSS	NONE	0.000000	0.000000	0.000000	AREA
SITE_ROADWAY	TN	NONE	0.000000	0.000000	0.000000	AREA
SITE_ROADWAY	TP	NONE	0.000000	0.000000	0.000000	AREA

[WASHOFF]
GBFS_STOCKPILE	ZINC	EMC	0.000000	0.000000	0.000000	0.000000
GBFS_STOCKPILE	SULPHATE	EMC	0.000000	0.000000	0.000000	0.000000
GBFS_STOCKPILE	IRON	EMC	0.000000	0.000000	0.000000	0.000000
GBFS_STOCKPILE	TSS	EMC	1060.000000	0.000000	0.000000	0.000000
GBFS_STOCKPILE	TN	EMC	2.500000	0.000000	0.000000	0.000000
GBFS_STOCKPILE	TP	EMC	0.414000	0.000000	0.000000	0.000000
GRASSED_BERM	ZINC	EMC	0.000000	0.000000	0.000000	0.000000
GRASSED_BERM	SULPHATE	EMC	0.000000	0.000000	0.000000	0.000000
GRASSED_BERM	IRON	EMC	0.000000	0.000000	0.000000	0.000000
GRASSED_BERM	TSS	EMC	0.000000	0.000000	0.000000	0.000000
GRASSED_BERM	TN	EMC	0.000000	0.000000	0.000000	0.000000
GRASSED_BERM	TP	EMC	0.000000	0.000000	0.000000	0.000000
GYPSUM_STOCKPILE	ZINC	EMC	300.000000	0.000000	0.000000	0.000000
GYPSUM_STOCKPILE	SULPHATE	EMC	199.000000	0.000000	0.000000	0.000000
GYPSUM_STOCKPILE	IRON	NONE	0.000000	0.000000	0.000000	0.000000
GYPSUM_STOCKPILE	TSS	EMC	320.000000	0.000000	0.000000	0.000000
GYPSUM_STOCKPILE	TN	EMC	2.500000	0.000000	0.000000	0.000000
GYPSUM_STOCKPILE	TP	EMC	0.414000	0.000000	0.000000	0.000000
SITE_ROADWAY	ZINC	EMC	300.000000	0.000000	0.000000	0.000000
SITE_ROADWAY	SULPHATE	EMC	0.000000	0.000000	0.000000	0.000000
SITE_ROADWAY	IRON	EMC	0.000000	0.000000	0.000000	0.000000
SITE_ROADWAY	TSS	EMC	1060.000000	0.000000	0.000000	0.000000
SITE_ROADWAY	TN	EMC	2.500000	0.000000	0.000000	0.000000
SITE_ROADWAY	TP	EMC	0.414000	0.000000	0.000000	0.000000

[TREATMENT]
BF1	TSS	C = TSS*EXP(-0.001*DT/DEPTH)
BF2	TSS	C = TSS*EXP(-0.001*DT/DEPTH)
BF3	TSS	C = TSS*EXP(-0.001*DT/DEPTH)
FF1	TSS	C = TSS*EXP(-0.05*HRT)
FF2	TSS	C = TSS*EXP(-0.05*HRT)
FF3	TSS	C = TSS*EXP(-0.05*HRT)

[INFLOWS]
1	FLOW	""	FLOW  1.0	1.000000	0.000000
1PA	FLOW	""	FLOW  1.0	1.000000	0.000000
7	FLOW	""	FLOW  1.0	1.000000	0.000000

[DWF]

[RDII]

[LOADINGS]

[CURVES]
; 
20MX5MTANK	STORAGE	0.000000	100.000000
20MX5MTANK	0.800000	100.000000
20MX5MTANK	1.200000	100.000000
20MX5MTANK	1.500000	150.000000
; 
27MX5MTANK	STORAGE	0.000000	45.000000
27MX5MTANK	0.750000	45.000000
27MX5MTANK	0.800000	135.000000
27MX5MTANK	1.200000	135.000000
; 
40MX5MFFTANK	STORAGE	0.000000	200.000000
40MX5MFFTANK	0.600000	200.000000
40MX5MFFTANK	1.350000	200.000000
40MX5MFFTANK	2.100000	300.000000
; 
40MX5M_BIOFILT	STORAGE	0.000000	67.000000
40MX5M_BIOFILT	0.750000	67.000000
40MX5M_BIOFILT	0.800000	200.000000
40MX5M_BIOFILT	1.000000	200.000000
40MX5M_BIOFILT	2.000000	200.000000
; 
BIOF_PUMPPIT	STORAGE	0.000000	1.000000
BIOF_PUMPPIT	0.600000	1.000000
BIOF_PUMPPIT	2.000000	1.000000
BIOF_PUMPPIT	3.000000	10.000000
; 
PUMP_2M_10LS	PUMP4	0.100000	0.000000
PUMP_2M_10LS	0.600000	3.000000
PUMP_2M_10LS	0.700000	5.000000
PUMP_2M_10LS	1.000000	8.000000
PUMP_2M_10LS	1.500000	9.000000
PUMP_2M_10LS	2.000000	10.000000
; 
PUMP_2M_5L/S	PUMP4	0.600000	0.000000
PUMP_2M_5L/S	1.000000	5.000000
PUMP_2M_5L/S	1.500000	5.000000
PUMP_2M_5L/S	2.000000	5.000000
PUMP_2M_5L/S	2.500000	6.000000
; 
REUSE_STORAGETANK	STORAGE	0.000000	100.000000
REUSE_STORAGETANK	1.000000	100.000000
REUSE_STORAGETANK	1.500000	100.000000
REUSE_STORAGETANK	2.000000	100.000000
REUSE_STORAGETANK	2.500000	100.000000

[TIMESERIES]
RAX36_100YR2HR_87	0:00	0.000000
RAX36_100YR2HR_87	0:05	38.422000
RAX36_100YR2HR_87	0:10	83.247000
RAX36_100YR2HR_87	0:15	52.830000
RAX36_100YR2HR_87	0:20	78.444000
RAX36_100YR2HR_87	0:25	145.682000
RAX36_100YR2HR_87	0:30	83.247000
RAX36_100YR2HR_87	0:35	267.350000
RAX36_100YR2HR_87	0:40	190.507000
RAX36_100YR2HR_87	0:45	84.848000
RAX36_100YR2HR_87	0:50	52.830000
RAX36_100YR2HR_87	0:55	54.431000
RAX36_100YR2HR_87	1:00	68.839000
RAX36_100YR2HR_87	1:05	68.839000
RAX36_100YR2HR_87	1:10	38.422000
RAX36_100YR2HR_87	1:15	38.422000
RAX36_100YR2HR_87	1:20	54.431000
RAX36_100YR2HR_87	1:25	38.422000
RAX36_100YR2HR_87	1:30	19.211000
RAX36_100YR2HR_87	1:35	19.211000
RAX36_100YR2HR_87	1:40	40.022000
RAX36_100YR2HR_87	1:45	19.211000
RAX36_100YR2HR_87	1:50	20.812000
RAX36_100YR2HR_87	1:55	20.812000
RAX36_100YR2HR_87	2:00	22.413000

RAX36_100YR_25MIN	0:00	0.000000
RAX36_100YR_25MIN	0:05	133.268000
RAX36_100YR_25MIN	0:10	192.498000
RAX36_100YR_25MIN	0:15	259.132000
RAX36_100YR_25MIN	0:20	81.441000
RAX36_100YR_25MIN	0:25	74.038000
RAX36_100YR_25MIN	0:30	0.000000

RAX36_100YR_4.5HR_87	0:00	0.000000
RAX36_100YR_4.5HR_87	0:15	12.089000
RAX36_100YR_4.5HR_87	0:30	40.799000
RAX36_100YR_4.5HR_87	0:45	74.043000
RAX36_100YR_4.5HR_87	1:00	57.421000
RAX36_100YR_4.5HR_87	1:15	134.486000
RAX36_100YR_4.5HR_87	1:30	97.465000
RAX36_100YR_4.5HR_87	1:45	35.510000
RAX36_100YR_4.5HR_87	2:00	25.688000
RAX36_100YR_4.5HR_87	2:15	51.377000
RAX36_100YR_4.5HR_87	2:30	42.310000
RAX36_100YR_4.5HR_87	2:45	33.999000
RAX36_100YR_4.5HR_87	3:00	27.955000
RAX36_100YR_4.5HR_87	3:15	28.711000
RAX36_100YR_4.5HR_87	3:30	20.400000
RAX36_100YR_4.5HR_87	3:45	28.711000
RAX36_100YR_4.5HR_87	4:00	20.400000
RAX36_100YR_4.5HR_87	4:15	12.089000
RAX36_100YR_4.5HR_87	4:30	12.089000
RAX36_100YR_4.5HR_87	4:45	0.000000

RAX36_005YR_2HR_87	0:00	0.000000
RAX36_005YR_2HR_87	0:05	20.441000
RAX36_005YR_2HR_87	0:10	49.244000
RAX36_005YR_2HR_87	0:15	28.803000
RAX36_005YR_2HR_87	0:20	45.527000
RAX36_005YR_2HR_87	0:25	89.196000
RAX36_005YR_2HR_87	0:30	48.314000
RAX36_005YR_2HR_87	0:35	167.242000
RAX36_005YR_2HR_87	0:40	115.211000
RAX36_005YR_2HR_87	0:45	52.031000
RAX36_005YR_2HR_87	0:50	28.803000
RAX36_005YR_2HR_87	0:55	30.661000
RAX36_005YR_2HR_87	1:00	39.023000
RAX36_005YR_2HR_87	1:05	39.952000
RAX36_005YR_2HR_87	1:10	19.512000
RAX36_005YR_2HR_87	1:15	20.441000
RAX36_005YR_2HR_87	1:20	31.590000
RAX36_005YR_2HR_87	1:25	17.653000
RAX36_005YR_2HR_87	1:30	11.149000
RAX36_005YR_2HR_87	1:35	9.291000
RAX36_005YR_2HR_87	1:40	21.370000
RAX36_005YR_2HR_87	1:45	8.362000
RAX36_005YR_2HR_87	1:50	12.079000
RAX36_005YR_2HR_87	1:55	10.220000
RAX36_005YR_2HR_87	2:00	13.008000
RAX36_005YR_2HR_87	2:05	0.000000

RAX36_020YR2HR_1987	0:00	0.000000
RAX36_020YR2HR_1987	0:05	26.830000
RAX36_020YR2HR_1987	0:10	64.635000
RAX36_020YR2HR_1987	0:15	37.806000
RAX36_020YR2HR_1987	0:20	59.757000
RAX36_020YR2HR_1987	0:25	117.075000
RAX36_020YR2HR_1987	0:30	63.416000
RAX36_020YR2HR_1987	0:35	219.516000
RAX36_020YR2HR_1987	0:40	151.222000
RAX36_020YR2HR_1987	0:45	68.294000
RAX36_020YR2HR_1987	0:50	37.806000
RAX36_020YR2HR_1987	0:55	40.245000
RAX36_020YR2HR_1987	1:00	51.220000
RAX36_020YR2HR_1987	1:05	52.440000
RAX36_020YR2HR_1987	1:10	25.610000
RAX36_020YR2HR_1987	1:15	26.830000
RAX36_020YR2HR_1987	1:20	41.464000
RAX36_020YR2HR_1987	1:25	23.171000
RAX36_020YR2HR_1987	1:30	14.634000
RAX36_020YR2HR_1987	1:35	12.195000
RAX36_020YR2HR_1987	1:40	28.049000
RAX36_020YR2HR_1987	1:45	10.976000
RAX36_020YR2HR_1987	1:50	15.854000
RAX36_020YR2HR_1987	1:55	13.415000
RAX36_020YR2HR_1987	2:00	17.073000
RAX36_020YR2HR_1987	2:05	0.000000


[PATTERNS]

[REPORT]
;Report Option Set: BASE, Base Simulation Report
INPUT YES
CONTINUITY YES
FLOWSTATS YES
CONTROLS NO
SUBCATCHMENTS  ALL
NODES  ALL
LINKS  ALL

[COORDINATES]
1	306977.133000	6183936.588000
10	307042.431000	6183902.397000
12	307058.113000	6183832.215000
13	306872.246000	6183859.465000
1PA	306973.534000	6183937.617000
1PB	306898.725000	6183940.959000
1PC	306850.394000	6183911.909000
2	307039.089000	6183848.411000
3	306988.188000	6183802.394000
7	306950.140000	6183950.214000
9	307011.582000	6183940.188000
BF1	306854.494000	6183891.815000
BF2	306963.856000	6183773.165000
BF3	307021.865000	6183924.763000
CHRISTY_RD_PIT	307061.969000	6183818.076000
FF1	306843.196000	6183915.251000
FF2	306982.789000	6183796.738000
FF3	307015.952000	6183932.732000
OF1	306855.810000	6183883.114000
OF2	306958.643000	6183770.795000
OF3	307038.575000	6183903.940000
OLD_PORT_RD_PIT	306951.169000	6183763.833000
OUTLET	307018.523000	6183749.436000
PUMP_OUTFALL1	306906.694000	6183894.685000
PUMP_OUTFALL_2	306926.746000	6183857.152000
PW1	306865.118000	6183893.029000
PW2	306972.624000	6183777.351000
SINK	306992.044000	6183751.750000
WT1	306870.189000	6183882.345000
WT2	306980.732000	6183778.486000


[POLYGONS]

CULDESAC	306895.640000	6183947.643000
CULDESAC	306894.869000	6183941.216000
CULDESAC	306874.817000	6183930.676000
CULDESAC	306864.534000	6183923.220000
CULDESAC	306854.250000	6183919.621000
CULDESAC	306843.967000	6183926.305000
CULDESAC	306841.397000	6183944.815000
CULDESAC	306857.592000	6183951.499000
CULDESAC	306889.213000	6183948.671000

DRIVEWAY_ENTRY	307038.061000	6183840.185000
DRIVEWAY_ENTRY	307028.292000	6183830.930000
DRIVEWAY_ENTRY	307000.013000	6183808.050000
DRIVEWAY_ENTRY	306993.329000	6183799.052000
DRIVEWAY_ENTRY	306996.157000	6183794.682000
DRIVEWAY_ENTRY	307002.841000	6183796.224000
DRIVEWAY_ENTRY	307008.497000	6183803.680000
DRIVEWAY_ENTRY	307022.636000	6183817.305000
DRIVEWAY_ENTRY	307040.888000	6183830.930000
DRIVEWAY_ENTRY	307047.315000	6183828.102000
DRIVEWAY_ENTRY	307053.485000	6183836.843000
DRIVEWAY_ENTRY	307042.431000	6183846.611000

DRV_WEIGHBRIDGE	306980.475000	6183937.874000
DRV_WEIGHBRIDGE	306986.131000	6183936.846000
DRV_WEIGHBRIDGE	307000.527000	6183925.791000
DRV_WEIGHBRIDGE	307008.754000	6183936.331000
DRV_WEIGHBRIDGE	306994.872000	6183945.329000
DRV_WEIGHBRIDGE	306978.419000	6183945.843000

DRV_WEIGH_BRIDGE	307003.612000	6183923.478000
DRV_WEIGH_BRIDGE	307012.096000	6183929.647000
DRV_WEIGH_BRIDGE	307039.860000	6183898.284000
DRV_WEIGH_BRIDGE	307049.372000	6183881.574000
DRV_WEIGH_BRIDGE	307052.714000	6183863.836000
DRV_WEIGH_BRIDGE	307050.657000	6183841.727000
DRV_WEIGH_BRIDGE	307043.459000	6183848.154000
DRV_WEIGH_BRIDGE	307044.488000	6183861.522000
DRV_WEIGH_BRIDGE	307041.660000	6183874.119000
DRV_WEIGH_BRIDGE	307030.605000	6183890.572000
DRV_WEIGH_BRIDGE	307003.612000	6183924.506000

DRV_WHEELWASH	306966.336000	6183947.129000
DRV_WHEELWASH	306967.107000	6183939.673000
DRV_WHEELWASH	306901.553000	6183941.987000
DRV_WHEELWASH	306899.753000	6183949.699000

MOUND_S	306955.282000	6183779.771000
MOUND_S	307008.240000	6183820.647000
MOUND_S	307034.976000	6183841.470000
MOUND_S	307037.289000	6183848.411000
MOUND_S	307033.947000	6183852.781000
MOUND_S	307031.891000	6183852.267000
MOUND_S	306951.169000	6183787.998000

OFF_CARPARK	307032.919000	6183822.703000
OFF_CARPARK	307015.952000	6183808.564000
OFF_CARPARK	307004.641000	6183796.481000
OFF_CARPARK	307005.155000	6183785.427000
OFF_CARPARK	307051.429000	6183822.189000
OFF_CARPARK	307042.688000	6183828.873000

SITE-W_EDGE	306867.618000	6183872.576000
SITE-W_EDGE	306888.185000	6183844.041000
SITE-W_EDGE	306932.659000	6183791.597000
SITE-W_EDGE	306951.426000	6183759.205000
SITE-W_EDGE	306955.796000	6183753.035000
SITE-W_EDGE	306963.251000	6183750.979000
SITE-W_EDGE	306984.331000	6183763.576000
SITE-W_EDGE	306978.162000	6183773.087000
SITE-W_EDGE	306973.534000	6183773.344000
SITE-W_EDGE	306962.480000	6183769.231000
SITE-W_EDGE	306955.796000	6183774.887000
SITE-W_EDGE	306948.598000	6183787.741000
SITE-W_EDGE	306918.006000	6183823.732000
SITE-W_EDGE	306877.130000	6183879.260000

STOCKPILE_1	306949.112000	6183788.512000
STOCKPILE_1	306983.560000	6183815.248000
STOCKPILE_1	307036.518000	6183856.380000
STOCKPILE_1	307008.240000	6183890.315000
STOCKPILE_1	306922.119000	6183822.446000

STOCKPILE_2	306900.010000	6183865.378000
STOCKPILE_2	306978.933000	6183928.362000
STOCKPILE_2	307007.211000	6183894.428000
STOCKPILE_2	306919.034000	6183823.989000
STOCKPILE_2	306892.555000	6183859.722000

STOCKPILE_3	306968.907000	6183925.020000
STOCKPILE_3	306968.907000	6183925.020000
STOCKPILE_3	306969.164000	6183925.277000
STOCKPILE_3	306960.680000	6183934.275000
STOCKPILE_3	306948.084000	6183936.846000
STOCKPILE_3	306934.716000	6183928.619000
STOCKPILE_3	306917.234000	6183920.136000
STOCKPILE_3	306893.326000	6183905.739000
STOCKPILE_3	306877.387000	6183886.715000
STOCKPILE_3	306883.814000	6183874.633000
STOCKPILE_3	306894.869000	6183865.635000
STOCKPILE_3	306905.409000	6183873.862000
STOCKPILE_3	306933.430000	6183895.713000
STOCKPILE_3	306953.225000	6183913.452000
STOCKPILE_3	306969.935000	6183926.048000

[VERTICES]

1DN1	306900.010000	6183941.473000
26	306877.130000	6183833.501000
26	306903.352000	6183803.423000
26	306926.232000	6183776.686000
26	306938.315000	6183765.632000
27	306951.169000	6183755.349000
27	306955.282000	6183748.922000
27	306964.537000	6183747.380000
27	306978.933000	6183747.380000
DE1	306992.815000	6183928.876000
DE1	307005.412000	6183915.765000
DE1	307027.006000	6183889.543000
DE1	307037.289000	6183875.404000
DE1	307040.888000	6183863.321000
DE1	307041.146000	6183855.352000
DE2	307033.947000	6183839.413000
DE2	307021.094000	6183828.616000
DE2	307003.098000	6183813.963000
DNE1	306967.621000	6183949.956000
DNE1	306993.072000	6183949.185000
DNE1	307000.013000	6183948.414000
DNE1	307003.869000	6183945.843000
DNE1	307006.183000	6183944.301000
DSE1	307053.485000	6183882.602000
DSE1	307055.028000	6183877.975000
DSE1	307054.771000	6183872.062000
DSE1	307053.999000	6183864.350000
DSE1	307053.228000	6183848.411000
DSE1	307055.028000	6183842.241000
DSE1	307055.799000	6183838.385000
OF1A	306838.003000	6183910.431000
OF1A	306845.186000	6183900.212000
OF1B	306855.708000	6183889.184000
OF1B	306854.090000	6183886.351000
OF2A	306979.811000	6183797.809000
OF2A	306973.414000	6183792.832000
OF2A	306961.881000	6183781.932000
OF2B	306961.329000	6183776.877000
OF2B	306958.169000	6183775.060000
OF3A	307021.865000	6183933.761000
OF3A	307024.693000	6183930.933000
OF3B	307032.405000	6183922.963000
OF3B	307037.032000	6183918.336000
OF3B	307040.117000	6183911.909000
OF3B	307039.603000	6183903.940000
OFLOW1	306849.623000	6183919.364000
OFLOW1	306844.739000	6183922.192000
OFLOW1	306837.540000	6183926.048000
OFLOW1	306830.599000	6183923.735000
OFLOW1	306828.029000	6183918.079000
OFLOW1	306830.085000	6183899.312000
OFLOW1	306839.083000	6183874.376000
OFLOW1	306851.166000	6183858.951000
OFLOW1	306862.734000	6183855.095000
OFLOW_2	306995.129000	6183791.340000
OFLOW_2	306994.872000	6183779.514000
OFLOW_2	306995.129000	6183768.203000
OFLOW_2	306993.072000	6183759.205000
OFLOW_3	307028.806000	6183943.530000
OFLOW_3	307044.488000	6183928.619000
OFLOW_3	307060.940000	6183900.083000
OFLOW_3	307070.452000	6183857.923000
OFLOW_3	307070.452000	6183840.699000

[SYMBOLS]
PORT_KEMBLA-1990	306806.691000	6183947.386000

[MAP]
DIMENSIONS	306793.502950	6183737.174050	307083.640050	6183961.704950

