[TITLE]
  Model #9 from the Sim RU IDS(High) 090728.xls RDII sheds removed for k3-li
 ne timeseries input at MB 1 MBE 5 MSH 1 07/27/2009 Mastersheet with Pipe St
#SWMM4_RAINFALL   Reads a SWMM Rainfall.txt File

[OPTIONS]
FLOW_UNITS          	CFS
INFILTRATION        	CURVE_NUMBER
FLOW_ROUTING        	DYNWAVE
START_DATE          	01/01/2004
START_TIME          	00:00:00
REPORT_START_DATE   	01/01/2004
REPORT_START_TIME   	00:00:00
END_DATE            	01/02/2004
END_TIME            	00:00:00
SWEEP_START         	01/01
SWEEP_END           	12/31
DRY_DAYS            	0
REPORT_STEP         	00:05:00
WET_STEP            	00:05:00
DRY_STEP            	01:00:00
ROUTING_STEP        	0:00:01 
ALLOW_PONDING       	NO
INERTIAL_DAMPING    	FULL
VARIABLE_STEP       	0.75
LENGTHENING_STEP    	5
MIN_SURFAREA        	12.566
NORMAL_FLOW_LIMITED 	BOTH
SKIP_STEADY_STATE   	NO
FORCE_MAIN_EQUATION 	H-W
LINK_OFFSETS        	DEPTH
MIN_SLOPE           	0

[EVAPORATION]
;;Type      	Parameters
;;----------	----------
MONTHLY     	0.07  	0.07  	0.07  	0.15  	0.18  	0.21  	0.22  	0.19  	0.14  	0.09  	0.07  	0.07  
DRY_ONLY     NO

[RAINGAGES]
;;              	Rain     	Time  	Snow  	Data      
;;Name          	Type     	Intrvl	Catch 	Source    
;;--------------	---------	------	------	----------
GAGE1           	VOLUME   	0:15  	1     	FILE      	"RG_10IDF.txt"  	1         	IN   

[SUBCATCHMENTS]
;;              	                	                	Total   	Pcnt.   	        	Pcnt.   	Curb    	Snow    
;;Name          	Raingage        	Outlet          	Area    	Imperv  	Width   	Slope   	Length  	Pack    
;;--------------	----------------	----------------	--------	--------	--------	--------	--------	--------
331             	Gage1           	L2757           	347.17248	0.0     	4688.0  	4.88    	0.0     	                
332             	Gage1           	LJ152.5         	214.49600	0.0     	2140.4892434	4.88    	0.0     	                
334             	Gage1           	L3896           	1.21600 	0.0     	123.5189119	4.21    	0.0     	                
335             	Gage1           	LP4264          	9.79200 	0.0     	542.3638088	4.36    	0.0     	                
336             	GAGE1           	LP4264          	0.39040 	0.0     	70.1909538	2.61    	0.0     	                
337             	Gage1           	LP4264          	48.23040	0.0     	1024.5001816	2.72    	0.0     	                
338             	Gage1           	D20000          	434.23744	0.0     	2460.0  	3.63    	0.0     	                
339             	Gage1           	D10002          	0.45440 	0.0     	66.4231411	3.25    	0.0     	                
340             	Gage1           	D20000          	31.25120	0.0     	682.3815209	2.88    	0.0     	                
341             	Gage1           	D20000          	23.61600	0.0     	493.7435176	2.80    	0.0     	                
342             	Gage1           	LR225.1         	663.92960	0.0     	3263.1126775	4.75    	0.0     	                
343             	Gage1           	D20000          	88.37760	0.0     	1529.5321600	2.12    	0.0     	                
344             	Gage1           	L24405          	29.29280	0.0     	617.6578995	3.00    	0.0     	                
345             	Gage1           	L24405          	0.39040 	0.0     	19.2321178	2.55    	0.0     	                
346             	Gage1           	L24820-PomfretSt	53.52320	0.0     	1021.8391624	2.99    	0.0     	                
347             	Gage1           	L24820-PomfretSt	2.11840 	0.0     	88.1134059	2.67    	0.0     	                
348             	Gage1           	I30035          	2.14400 	0.0     	143.1483405	0.24    	0.0     	                
349             	Gage1           	I30031          	0.35200 	0.0     	22.0840174	0.59    	0.0     	                
350             	Gage1           	I30030          	1.14560 	0.0     	142.1914408	2.22    	0.0     	                
351             	Gage1           	I30030          	0.53120 	0.0     	87.5177611	3.49    	0.0     	                
352             	Gage1           	I30033          	0.40960 	0.0     	27.4959525	0.32    	0.0     	                
353             	Gage1           	L25815          	6.04800 	0.0     	202.6989581	2.26    	0.0     	                
354             	Gage1           	L25815          	0.96640 	0.0     	38.3388019	0.09    	0.0     	                
355             	Gage1           	L25815          	3.50720 	0.0     	141.3230885	0.02    	0.0     	                
356             	Gage1           	I30028          	2.45760 	0.0     	209.6904899	1.44    	0.0     	                
357             	Gage1           	I30029          	0.68480 	0.0     	73.4222929	3.28    	0.0     	                
358             	Gage1           	D30000          	0.74880 	0.0     	41.3882202	2.78    	0.0     	                
359             	Gage1           	D30000          	3.46240 	0.0     	134.9490642	0.84    	0.0     	                
360             	Gage1           	I40242          	3.21280 	0.0     	99.2876618	3.42    	0.0     	                
361             	Gage1           	I40242          	1.19040 	0.0     	44.3095174	0.58    	0.0     	                
362             	Gage1           	I30025          	0.51840 	0.0     	114.7580160	1.92    	0.0     	                
363             	Gage1           	I30039          	2.54720 	0.0     	204.9173494	2.63    	0.0     	                
364             	Gage1           	L31950          	5299.42400	0.0     	10206.0567986	7.39    	0.0     	                
365             	Gage1           	L25815          	0.47360 	0.0     	23.4964434	0.24    	0.0     	                
366             	Gage1           	I30026          	0.67840 	0.0     	103.8034798	3.02    	0.0     	                
367             	Gage1           	I30023          	4.09600 	0.0     	305.8471898	2.68    	0.0     	                
368             	Gage1           	I30038          	11.31520	0.0     	472.7934893	3.61    	0.0     	                
369             	Gage1           	I30038          	1.30560 	0.0     	129.3171198	2.62    	0.0     	                
370             	Gage1           	2               	0.72320 	0.0     	89.7700694	1.12    	0.0     	                
371             	Gage1           	2               	1.48480 	0.0     	134.3559006	2.68    	0.0     	                
372             	Gage1           	I30020          	1.28000 	0.0     	118.7252523	3.16    	0.0     	                
373             	Gage1           	I30019          	0.71040 	0.0     	134.2500187	3.25    	0.0     	                
374             	Gage1           	2               	3.99360 	0.0     	198.4712121	3.72    	0.0     	                
375             	Gage1           	2               	0.74880 	0.0     	80.8142724	1.38    	0.0     	                
376             	Gage1           	I30040          	4.10880 	0.0     	310.8299451	3.33    	0.0     	                
377             	Gage1           	I30040          	1.90720 	0.0     	127.8728248	3.42    	0.0     	                
378             	Gage1           	1               	2.83520 	0.0     	251.6288562	2.95    	0.0     	                
379             	Gage1           	1               	0.35840 	0.0     	42.7699642	3.37    	0.0     	                
380             	Gage1           	I30018          	0.82560 	0.0     	94.8915782	3.18    	0.0     	                
381             	Gage1           	I30017          	0.44160 	0.0     	62.0165682	2.78    	0.0     	                
382             	Gage1           	I30016          	0.96640 	0.0     	101.0467899	2.99    	0.0     	                
383             	Gage1           	I30016          	0.04480 	0.0     	28.3294760	2.19    	0.0     	                
384             	Gage1           	I30014          	3.86560 	0.0     	183.6542794	2.79    	0.0     	                
385             	Gage1           	I30011          	4.66560 	0.0     	330.1869366	3.96    	0.0     	                
386             	Gage1           	I40184          	2.04800 	0.0     	202.7918025	2.33    	0.0     	                
387             	Gage1           	1               	0.09600 	0.0     	39.2788950	4.85    	0.0     	                
388             	Gage1           	I30008          	13.79200	0.0     	594.3065758	3.10    	0.0     	                
389             	Gage1           	I30012          	0.88320 	0.0     	132.1292635	3.15    	0.0     	                
390             	Gage1           	D40000          	3.50720 	0.0     	181.4990058	2.39    	0.0     	                
391             	Gage1           	1               	3.56480 	0.0     	219.3016393	2.41    	0.0     	                
392             	Gage1           	I40185          	7.59040 	0.0     	280.7179936	3.84    	0.0     	                
393             	Gage1           	I40187          	4.57600 	0.0     	272.5360736	4.06    	0.0     	                
394             	Gage1           	I30006          	0.97920 	0.0     	93.0253413	4.03    	0.0     	                
395             	Gage1           	I30009          	4.65280 	0.0     	300.1759939	3.25    	0.0     	                
396             	Gage1           	I40184          	0.00000 	0.0     	10.0019999	0.00    	0.0     	                
397             	Gage1           	I40184          	2.63040 	0.0     	143.4053408	3.01    	0.0     	                
398             	Gage1           	I40181          	2.41280 	0.0     	203.4865189	3.39    	0.0     	                
399             	Gage1           	I40180          	1.23520 	0.0     	152.2621078	0.88    	0.0     	                
400             	Gage1           	I40179          	0.69760 	0.0     	94.1950938	1.76    	0.0     	                
401             	Gage1           	I40178          	1.16480 	0.0     	152.5541734	2.66    	0.0     	                
402             	Gage1           	I40177          	1.49760 	0.0     	117.1012971	2.34    	0.0     	                
403             	Gage1           	I40127          	0.62080 	0.0     	100.2714390	2.24    	0.0     	                
404             	Gage1           	I40119          	0.70400 	0.0     	102.5940338	1.63    	0.0     	                
405             	Gage1           	I40126          	0.15360 	0.0     	46.8064300	3.07    	0.0     	                
406             	Gage1           	I40124          	7.28320 	0.0     	433.9654510	2.85    	0.0     	                
407             	Gage1           	I40125          	0.81920 	0.0     	104.8450046	3.32    	0.0     	                
408             	Gage1           	I40177          	4.29440 	0.0     	217.2435064	4.52    	0.0     	                
409             	Gage1           	I40176          	0.41600 	0.0     	89.9045417	2.68    	0.0     	                
410             	Gage1           	I40118          	3.75040 	0.0     	209.4097772	5.11    	0.0     	                
411             	Gage1           	I40236          	1.45920 	0.0     	125.6766635	1.45    	0.0     	                
412             	Gage1           	I30004          	3.07840 	0.0     	233.5594711	3.66    	0.0     	                
413             	Gage1           	I30004          	1.60000 	0.0     	134.7541568	3.90    	0.0     	                
414             	Gage1           	I40128          	1.88160 	0.0     	164.0357598	5.03    	0.0     	                
415             	Gage1           	I40128          	8.28160 	0.0     	296.0606722	5.28    	0.0     	                
416             	Gage1           	I30001          	1.55520 	0.0     	118.6202159	3.54    	0.0     	                
417             	Gage1           	I30000          	0.45440 	0.0     	79.0294540	2.77    	0.0     	                
418             	Gage1           	I40121          	1.26720 	0.0     	109.9022995	2.38    	0.0     	                
419             	Gage1           	I40121          	0.08320 	0.0     	35.4468085	1.20    	0.0     	                
420             	Gage1           	I40121          	0.00640 	0.0     	15.0037498	0.10    	0.0     	                
421             	Gage1           	I40121          	0.25600 	0.0     	73.2314748	3.77    	0.0     	                
422             	Gage1           	I40121          	19.09120	0.0     	557.8388961	3.37    	0.0     	                
423             	Gage1           	I40121          	12.97280	0.0     	368.1344716	3.87    	0.0     	                
424             	Gage1           	I40115          	2.40000 	0.0     	222.3757480	1.74    	0.0     	                
425             	Gage1           	I40097          	9.47840 	0.0     	326.4544095	3.68    	0.0     	                
426             	Gage1           	I40091          	5.95840 	0.0     	392.0061061	4.97    	0.0     	                
427             	Gage1           	I40121          	0.37120 	0.0     	92.2106452	3.66    	0.0     	                
428             	Gage1           	I40106          	3.20000 	0.0     	238.2534705	5.60    	0.0     	                
429             	Gage1           	I40107          	0.32640 	0.0     	39.2942271	2.83    	0.0     	                
430             	Gage1           	I40098          	0.50560 	0.0     	59.9402960	3.04    	0.0     	                
431             	Gage1           	I40101          	5.72160 	0.0     	267.6057341	3.81    	0.0     	                
432             	Gage1           	I40090          	0.16640 	0.0     	59.6000532	5.89    	0.0     	                
433             	Gage1           	I40090          	8.46720 	0.0     	457.4268283	4.73    	0.0     	                
434             	Gage1           	I40092          	0.38400 	0.0     	107.3538044	6.94    	0.0     	                
435             	Gage1           	I40082          	6.11840 	0.0     	325.9888938	6.90    	0.0     	                
436             	Gage1           	I40089          	2.57920 	0.0     	150.2051720	4.54    	0.0     	                
437             	Gage1           	I40092          	0.97280 	0.0     	131.9564927	4.53    	0.0     	                
438             	Gage1           	I40088          	22.45760	0.0     	467.6902351	5.93    	0.0     	                
439             	Gage1           	I40075          	3.89760 	0.0     	214.6684385	3.65    	0.0     	                
440             	Gage1           	I40077          	0.36480 	0.0     	88.3432380	3.13    	0.0     	                
441             	Gage1           	I40083          	2.45760 	0.0     	299.7664023	3.67    	0.0     	                
442             	Gage1           	I40240          	0.88960 	0.0     	123.6534163	1.98    	0.0     	                
443             	Gage1           	I40032          	2.29760 	0.0     	186.6119709	3.23    	0.0     	                
444             	Gage1           	I40029          	4.83840 	0.0     	298.9734664	4.02    	0.0     	                
445             	Gage1           	I40141          	0.47360 	0.0     	53.6386800	0.78    	0.0     	                
446             	Gage1           	I40086          	0.96000 	0.0     	90.1556522	2.42    	0.0     	                
447             	Gage1           	I40086          	2.01600 	0.0     	190.3263620	5.13    	0.0     	                
448             	Gage1           	I40086          	56.42240	0.0     	839.5784505	6.72    	0.0     	                
449             	Gage1           	I40139          	0.58880 	0.0     	50.4405317	5.05    	0.0     	                
450             	Gage1           	I40138          	4.47360 	0.0     	223.6052029	4.04    	0.0     	                
451             	Gage1           	I40073          	2.66240 	0.0     	211.8941904	3.45    	0.0     	                
452             	Gage1           	I40073          	0.24320 	0.0     	67.2347906	2.79    	0.0     	                
453             	Gage1           	I40132          	2.00960 	0.0     	179.2101156	5.25    	0.0     	                
454             	Gage1           	I40133          	3.81440 	0.0     	265.1894564	5.04    	0.0     	                
455             	Gage1           	I40136          	5.36960 	0.0     	211.4584262	4.75    	0.0     	                
456             	Gage1           	I40135          	0.66560 	0.0     	51.9013292	2.92    	0.0     	                
457             	Gage1           	I40068          	4.44160 	0.0     	315.2225095	3.55    	0.0     	                
458             	Gage1           	I40070          	6.15040 	0.0     	283.8284002	2.81    	0.0     	                
459             	Gage1           	I40076          	0.42880 	0.0     	82.5009841	3.21    	0.0     	                
460             	Gage1           	I40023          	10.69568	0.0     	544.0   	2.70    	0.0     	                
461             	Gage1           	I40034          	0.49280 	0.0     	103.9523462	5.21    	0.0     	                
462             	Gage1           	I40034          	0.81280 	0.0     	124.5654070	5.77    	0.0     	                
463             	Gage1           	I40042          	6.77120 	0.0     	380.3632358	3.60    	0.0     	                
464             	Gage1           	I40033          	1.13920 	0.0     	135.0045799	4.55    	0.0     	                
465             	Gage1           	I40065          	6.32960 	0.0     	299.5382735	3.61    	0.0     	                
466             	Gage1           	I40065          	4.16640 	0.0     	274.1207959	3.60    	0.0     	                
467             	Gage1           	I40020          	8.33280 	0.0     	397.0567572	3.65    	0.0     	                
468             	Gage1           	I40019          	1.13280 	0.0     	124.9177790	2.52    	0.0     	                
469             	Gage1           	I40039          	4.32000 	0.0     	259.9204230	2.87    	0.0     	                
470             	Gage1           	I40037          	4.35840 	0.0     	212.4596886	3.00    	0.0     	                
471             	Gage1           	I40060          	1.79200 	0.0     	194.7956896	2.38    	0.0     	                
472             	Gage1           	I40062          	6.13120 	0.0     	396.7099753	3.69    	0.0     	                
473             	Gage1           	I40023          	0.96000 	0.0     	128.7235114	2.76    	0.0     	                
474             	Gage1           	I40019          	25.32480	0.0     	837.1983850	3.83    	0.0     	                
475             	Gage1           	I40009          	4.32640 	0.0     	253.3880656	2.62    	0.0     	                
476             	Gage1           	I40020          	1.32480 	0.0     	145.8896556	2.64    	0.0     	                
477             	Gage1           	I40042          	3.83360 	0.0     	273.2503458	4.71    	0.0     	                
478             	Gage1           	I40043          	0.53120 	0.0     	116.6422875	5.60    	0.0     	                
479             	Gage1           	I40060          	7.47520 	0.0     	430.1471476	2.51    	0.0     	                
480             	Gage1           	I40056          	5.51040 	0.0     	285.4622266	3.20    	0.0     	                
481             	Gage1           	I40045          	1.17120 	0.0     	168.0575529	4.29    	0.0     	                
482             	Gage1           	I40049          	1.03680 	0.0     	149.9523542	4.98    	0.0     	                
483             	Gage1           	I40043          	1120.24320	0.0     	3579.6760127	4.65    	0.0     	                
484             	Gage1           	I40043          	2.44480 	0.0     	78.0528564	10.56   	0.0     	                
485             	Gage1           	I40043          	2.83520 	0.0     	206.9699837	5.94    	0.0     	                
486             	Gage1           	I40008          	0.16000 	0.0     	52.2109061	1.63    	0.0     	                
487             	Gage1           	I40008          	5.81760 	0.0     	387.0230632	4.97    	0.0     	                
488             	Gage1           	M40022          	4.53760 	0.0     	339.4789250	2.60    	0.0     	                
489             	Gage1           	I40046          	1.61280 	0.0     	179.7678149	2.44    	0.0     	                
490             	Gage1           	I40050          	6.04160 	0.0     	264.5976003	2.78    	0.0     	                
491             	Gage1           	I40052          	4.14720 	0.0     	290.6824579	3.83    	0.0     	                
492             	Gage1           	I40012          	1.35040 	0.0     	110.2216271	3.85    	0.0     	                
493             	Gage1           	I40005          	3.16800 	0.0     	207.8232827	3.94    	0.0     	                
494             	Gage1           	I40225          	0.13440 	0.0     	37.3703036	1.96    	0.0     	                
495             	Gage1           	I40226          	0.21760 	0.0     	66.3673258	2.32    	0.0     	                
496             	Gage1           	I40142          	1.98400 	0.0     	181.7814211	4.91    	0.0     	                
497             	Gage1           	I40053          	7.55200 	0.0     	333.4874244	3.52    	0.0     	                
498             	Gage1           	I40226          	13.29920	0.0     	470.1117048	5.87    	0.0     	                
499             	Gage1           	I40226          	0.50560 	0.0     	88.9477810	2.87    	0.0     	                
500             	Gage1           	I40016          	2.26560 	0.0     	227.5682943	2.89    	0.0     	                
501             	Gage1           	I40014          	1.12640 	0.0     	116.7680645	2.95    	0.0     	                
502             	Gage1           	I40224          	6.04160 	0.0     	376.6251985	3.28    	0.0     	                
503             	Gage1           	I40224          	2.83520 	0.0     	232.0332013	9.00    	0.0     	                
504             	Gage1           	I40007          	0.05120 	0.0     	40.8629061	5.01    	0.0     	                
505             	Gage1           	I40004          	7.60320 	0.0     	365.3021414	3.04    	0.0     	                
506             	Gage1           	I40006          	15.71200	0.0     	406.0493544	6.11    	0.0     	                
507             	Gage1           	I40006          	3.71840 	0.0     	349.5627698	3.08    	0.0     	                
508             	Gage1           	I40016          	1.40160 	0.0     	197.7386925	2.86    	0.0     	                
509             	Gage1           	I40016          	0.53760 	0.0     	91.0804056	1.96    	0.0     	                
510             	Gage1           	I40143          	0.85120 	0.0     	114.8495354	4.00    	0.0     	                
511             	Gage1           	I40145          	4.24320 	0.0     	398.3590961	4.40    	0.0     	                
512             	Gage1           	I40000          	0.50560 	0.0     	61.7956930	5.24    	0.0     	                
513             	Gage1           	I40002          	9.75360 	0.0     	449.9515000	5.92    	0.0     	                
514             	Gage1           	I40003          	1.39520 	0.0     	199.6341456	6.46    	0.0     	                
515             	Gage1           	I40166          	290.36160	0.0     	1905.5120567	3.75    	0.0     	                
516             	Gage1           	I40168          	2.11840 	0.0     	172.0536759	6.17    	0.0     	                
517             	Gage1           	I40149          	0.23680 	0.0     	50.3845876	2.74    	0.0     	                
518             	Gage1           	I40148          	5.28640 	0.0     	247.3417495	3.21    	0.0     	                
519             	Gage1           	I40151          	5.56800 	0.0     	264.1212347	3.05    	0.0     	                
520             	Gage1           	I40153          	3.85280 	0.0     	265.5675021	4.13    	0.0     	                
521             	Gage1           	I40197          	0.62720 	0.0     	85.4586040	9.62    	0.0     	                
522             	Gage1           	I40201          	11.20000	0.0     	518.6700723	8.53    	0.0     	                
523             	Gage1           	I40206          	0.78720 	0.0     	91.8244708	8.47    	0.0     	                
524             	Gage1           	I40241          	2.84800 	0.0     	280.9462432	6.80    	0.0     	                
525             	Gage1           	I40168          	4.76160 	0.0     	379.8245010	3.21    	0.0     	                
526             	Gage1           	I40167          	3.14880 	0.0     	213.6990140	2.79    	0.0     	                
527             	Gage1           	I40213          	0.33920 	0.0     	86.4798775	3.21    	0.0     	                
528             	Gage1           	I40207          	3.93600 	0.0     	296.4226978	7.36    	0.0     	                
529             	Gage1           	I40011          	0.72320 	0.0     	85.8161376	7.88    	0.0     	                
530             	Gage1           	I40210          	2.91840 	0.0     	288.8593638	6.12    	0.0     	                
531             	Gage1           	I40169          	13.26720	0.0     	472.9058129	3.85    	0.0     	                
532             	Gage1           	I40172          	1.69600 	0.0     	132.5692306	4.29    	0.0     	                
533             	Gage1           	I40160          	2.21440 	0.0     	178.2521797	3.93    	0.0     	                
534             	Gage1           	I40173          	1.70880 	0.0     	157.4438611	3.19    	0.0     	                
535             	Gage1           	I40216          	3.80160 	0.0     	262.4536005	6.09    	0.0     	                
536             	Gage1           	I40194          	2.33600 	0.0     	166.3896121	6.05    	0.0     	                
537             	Gage1           	I40158          	0.51200 	0.0     	123.1723413	3.20    	0.0     	                
538             	Gage1           	I40157          	1.18400 	0.0     	156.9516894	3.54    	0.0     	                
539             	Gage1           	I40172          	2.26560 	0.0     	228.0444558	5.51    	0.0     	                
540             	Gage1           	I40171          	0.74240 	0.0     	110.8157324	4.42    	0.0     	                
541             	Gage1           	I40220          	2.49600 	0.0     	235.1340355	6.58    	0.0     	                
542             	Gage1           	I40221          	0.48000 	0.0     	105.8199061	4.49    	0.0     	                
543             	Gage1           	I40155          	0.60160 	0.0     	114.3734447	2.33    	0.0     	                
544             	Gage1           	I40154          	1.68320 	0.0     	148.5957965	3.16    	0.0     	                
545             	Gage1           	I40189          	1.35040 	0.0     	105.9487941	6.58    	0.0     	                
546             	Gage1           	I40190          	1.32480 	0.0     	155.7575338	6.72    	0.0     	                
547             	Gage1           	I40254          	73.74720	0.0     	994.6669916	5.92    	0.0     	                
548             	Gage1           	I40222          	4.31360 	0.0     	232.1550262	6.02    	0.0     	                
549             	Gage1           	I40229          	1.20320 	0.0     	153.3849230	4.92    	0.0     	                
550             	Gage1           	I40233          	0.46080 	0.0     	100.0232053	6.59    	0.0     	                
551             	Gage1           	I40235          	3.48800 	0.0     	233.3365064	4.49    	0.0     	                
552             	Gage1           	I40235          	49.40800	0.0     	644.0838914	4.76    	0.0     	                
553             	Gage1           	I40228          	2.46400 	0.0     	267.9698794	4.53    	0.0     	                
554             	Gage1           	I40223          	2.30400 	0.0     	169.9865829	4.53    	0.0     	                
560             	Gage1           	I40026          	2.71552 	0.0     	265.0   	2.70    	0.0     	                
;Added subarea for flow to I30032
348b            	GAGE1           	I30032          	0.00079 	25      	30      	0.24    	0       	                
;added subarea for flow to I30034
348c            	GAGE1           	I30034          	0.00079 	0       	30      	0.24    	0       	                

[SUBAREAS]
;;Subcatchment  	N-Imperv  	N-Perv    	S-Imperv  	S-Perv    	PctZero   	RouteTo   	PctRouted 
;;--------------	----------	----------	----------	----------	----------	----------	----------
331             	0.013     	0.1       	0.0363494900	0.0363494900	25        	OUTLET    
332             	0.013     	0.1       	0.0488177000	0.0488177000	25        	OUTLET    
334             	0.013     	0.1       	0.0420714900	0.0420714900	25        	OUTLET    
335             	0.013     	0.1       	0.0436044500	0.0436044500	25        	OUTLET    
336             	0.013     	0.1       	0.0261113000	0.0261113000	25        	OUTLET    
337             	0.013     	0.1       	0.0271769700	0.0271769700	25        	OUTLET    
338             	0.013     	0.1       	0.0363494900	0.0363494900	25        	OUTLET    
339             	0.013     	0.1       	0.0324703200	0.0324703200	25        	OUTLET    
340             	0.013     	0.1       	0.0288277600	0.0288277600	25        	OUTLET    
341             	0.013     	0.1       	0.0280268600	0.0280268600	25        	OUTLET    
342             	0.013     	0.1       	0.0474599100	0.0474599100	25        	OUTLET    
343             	0.013     	0.1       	0.0211578600	0.0211578600	25        	OUTLET    
344             	0.013     	0.1       	0.0300342600	0.0300342600	25        	OUTLET    
345             	0.013     	0.1       	0.0255085700	0.0255085700	25        	OUTLET    
346             	0.013     	0.1       	0.0298765300	0.0298765300	25        	OUTLET    
347             	0.013     	0.1       	0.0267163700	0.0267163700	25        	OUTLET    
348             	0.013     	0.1       	0.0023858400	0.0023858400	25        	OUTLET    
349             	0.013     	0.1       	0.0058855300	0.0058855300	25        	OUTLET    
350             	0.013     	0.1       	0.0221580000	0.0221580000	25        	OUTLET    
351             	0.013     	0.1       	0.0349265600	0.0349265600	25        	OUTLET    
352             	0.013     	0.1       	0.0032246000	0.0032246000	25        	OUTLET    