[TITLE]
KENH NHIEU LOC - THI NGHE
CHUA NHAP CAT THUC-CHUA MUA-CHUA BIEN TRIEU
SW   1       8       9

[OPTIONS]
FLOW_UNITS          	CMS
INFILTRATION        	HORTON
FLOW_ROUTING        	DYNWAVE
START_DATE          	10/01/2010
START_TIME          	00:00:00
REPORT_START_DATE   	10/01/2010
REPORT_START_TIME   	00:00:00
END_DATE            	10/02/2010
END_TIME            	00:00:00
SWEEP_START         	01/01
SWEEP_END           	12/31
DRY_DAYS            	0
REPORT_STEP         	00:01:00
WET_STEP            	00:01:00
DRY_STEP            	00:01:00
ROUTING_STEP        	0:00:10 
ALLOW_PONDING       	YES
INERTIAL_DAMPING    	PARTIAL
VARIABLE_STEP       	0.75
LENGTHENING_STEP    	0
MIN_SURFAREA        	1
NORMAL_FLOW_LIMITED 	SLOPE
SKIP_STEADY_STATE   	NO
FORCE_MAIN_EQUATION 	H-W
LINK_OFFSETS        	ELEVATION
MIN_SLOPE           	0

[EVAPORATION]
;;Type      	Parameters
;;----------	----------
CONSTANT    	0.0
DRY_ONLY     NO

[RAINGAGES]
;;              	Rain     	Time  	Snow  	Data      
;;Name          	Type     	Intrvl	Catch 	Source    
;;--------------	---------	------	------	----------
GAGE1           	VOLUME   	0.25000	0     	TIMESERIES	mua119          

[SUBCATCHMENTS]
;;              	                	                	Total   	Pcnt.   	        	Pcnt.   	Curb    	Snow    
;;Name          	Raingage        	Outlet          	Area    	Imperv  	Width   	Slope   	Length  	Pack    
;;--------------	----------------	----------------	--------	--------	--------	--------	--------	--------
;*\   Nodes    *\   JUN     GRELEV  Z       QINST   YO      X       Y       IWHICH  SURELEV
CBaXe73         	GAGE1           	JCBaXe73        	8.97    	65      	448.5   	0.1     	0       	                
CBhBn76         	GAGE1           	JCBhBn76        	12.72   	65      	636     	0.1     	0       	                
CBhBn83         	GAGE1           	JCBhBn83        	29.4    	65      	1470    	0.1     	0       	                
CBhBn86         	GAGE1           	JCBhBn86        	12.33   	65      	616.5   	0.1     	0       	                
CBhBn88         	GAGE1           	JCBhBn88        	17.06   	65      	853     	0.1     	0       	                
CBhBn93         	GAGE1           	JCBhBn93        	27.02   	65      	1351    	0.1     	0       	                
CBhBn96         	GAGE1           	JCBhBn96        	8.58    	65      	429     	0.1     	0       	                
CBunB65         	GAGE1           	JCBunB65        	2.94    	65      	147     	0.1     	0       	                
CBunB67         	GAGE1           	JCBunB67        	10.43   	65      	521.5   	0.1     	0       	                
CBunB73         	GAGE1           	JCBunB73        	21.45   	65      	1072.5  	0.1     	0       	                
CBunB78         	GAGE1           	JCBunB78        	8.25    	65      	412.5   	0.1     	0       	                
CConHA0         	GAGE1           	JCConHA0        	27.7    	65      	1385    	0.1     	0       	                
CConHA1         	GAGE1           	JCConHA1        	18.09   	65      	904.5   	0.1     	0       	                
CConHA2         	GAGE1           	JCConHA2        	34.24   	65      	684.8   	0.1     	0       	                
CConHA6         	GAGE1           	JCConHA6        	23.35   	65      	1167.5  	0.1     	0       	                
CConHB2         	GAGE1           	JCConHB2        	33.37   	65      	1668.4999	0.1     	0       	                
CDaDD90         	GAGE1           	JCDaDD90        	20.57   	65      	1028.5  	0.1     	0       	                
CDaDD93         	GAGE1           	JCDaDD93        	7.76    	65      	388     	0.1     	0       	                
;CDngDh
CDngDh          	GAGE1           	JCDngDh         	10.36   	65      	518     	0.1     	0       	                
CLyTK90         	GAGE1           	JCLyTK90        	28.91   	65      	1445.5  	0.1     	0       	                
CMieN28         	GAGE1           	JCMieN28        	8.79    	65      	439.5   	0.1     	0       	                
CMieN35         	GAGE1           	JCMieN35        	10.01   	65      	500.5   	0.1     	0       	                
CNgTH92         	GAGE1           	JCNgTH92        	23.53   	65      	1176.5  	0.1     	0       	                
CPhXL42         	GAGE1           	JCPhXL42        	18.96   	65      	948     	0.1     	0       	                
CPhXL46         	GAGE1           	JCPhXL46        	15.47   	65      	773.5   	0.1     	0       	                
CPhXL52         	GAGE1           	JCPhXL52        	30.04   	65      	1502    	0.1     	0       	                
CSuoD38         	GAGE1           	JCSuoD38        	28.84   	65      	1442    	0.1     	0       	                
CSuoD41         	GAGE1           	JCSuoD41        	15.71   	65      	785.5   	0.1     	0       	                
CSuoD46         	GAGE1           	JCSuoD46        	17.04   	65      	852     	0.1     	0       	                
CSuoD47         	GAGE1           	JCSuoD47        	11.95   	65      	597.5   	0.1     	0       	                
CSuoD48         	GAGE1           	JCSuoD48        	17.46   	65      	873     	0.1     	0       	                
MBacD68         	GAGE1           	JMBacD68        	50.12   	50      	2505.9999	0.1     	0       	                
MBaDa39         	GAGE1           	JMBaDa39        	4.11    	65      	205.5   	0.1     	0       	                
MBaTH77         	GAGE1           	JMBaTH77        	11.11   	65      	555.5   	0.1     	0       	                
MBaTH84         	GAGE1           	JMBaTH84        	13.12   	65      	656     	0.1     	0       	                
MBaVT89         	GAGE1           	JMBaVT89        	28.04   	65      	1402    	0.1     	0       	                
MBHTQ67         	GAGE1           	JMBHTQ67        	3.86    	65      	193     	0.1     	0       	                
MBuTX84         	GAGE1           	JMBuTX84        	10.67   	65      	533.5   	0.1     	0       	                
MBuTX85         	GAGE1           	JMBuTX85        	7.02    	65      	351     	0.1     	0       	                
MBuTX86         	GAGE1           	JMBuTX86        	2.83    	65      	141.5   	0.1     	0       	                
MCMTd71         	GAGE1           	JMCMTd71        	8.6     	65      	430     	0.1     	0       	                
MCMTd72         	GAGE1           	JMCMTd72        	1.99    	65      	99.5    	0.1     	0       	                
MCMTd76         	GAGE1           	JMCMTd76        	2.56    	65      	128     	0.1     	0       	                
MCMTd78         	GAGE1           	JMCMTd78        	5.17    	65      	258.5   	0.1     	0       	                
MCMTd80         	GAGE1           	JMCMTd80        	6.67    	65      	333.5   	0.1     	0       	                
MCMTt69         	GAGE1           	JMCMTt69        	17.31   	65      	865.5   	0.1     	0       	                
MCMTt72         	GAGE1           	JMCMTt72        	19.13   	65      	956.5   	0.1     	0       	                
MCMTt76         	GAGE1           	JMCMTt76        	13.63   	65      	681.5   	0.1     	0       	                
MCMTt80         	GAGE1           	JMCMTt80        	14.39   	65      	719.5   	0.1     	0       	                
MCMTt84         	GAGE1           	JMCMTt84        	11.47   	65      	573.5   	0.1     	0       	                
MCMTt86         	GAGE1           	JMCMTt86        	10.11   	65      	505.5   	0.1     	0       	                
MCMTt90         	GAGE1           	JMCMTt90        	13.42   	65      	671     	0.1     	0       	                
MCMTt92         	GAGE1           	JMCMTt92        	24.7    	65      	1235    	0.1     	0       	                
MCMTt94         	GAGE1           	JMCMTt94        	17.28   	65      	864     	0.1     	0       	                
MCMTt96         	GAGE1           	JMCMTt96        	3.7     	65      	185     	0.1     	0       	                
MCMTt98         	GAGE1           	JMCMTt98        	2.51    	65      	125.5   	0.1     	0       	                
MConHA3         	GAGE1           	JMConHA3        	23.7    	65      	1185    	0.1     	0       	                
MConHB6         	GAGE1           	JMConHB6        	13.8    	65      	690     	0.1     	0       	                
MConHB9         	GAGE1           	JMConHB9        	23.2    	65      	1160    	0.1     	0       	                
MDaVN83         	GAGE1           	JMDaVN83        	27      	65      	1350    	0.1     	0       	                
MDBPb23         	GAGE1           	JMDBPb23        	22.88   	65      	1144    	0.1     	0       	                
MDBPb28         	GAGE1           	JMDBPb28        	17.17   	65      	608.5   	0.1     	0       	                
MDBPn24         	GAGE1           	JMDBPn24        	6.55    	65      	327.5   	0.1     	0       	                
MDBPn27         	GAGE1           	JMDBPn27        	3.89    	65      	194.5   	0.1     	0       	                
MDBPn36         	GAGE1           	JMDBPn36        	2.82    	65      	141     	0.1     	0       	                
MDBPn40         	GAGE1           	JMDBPn40        	2.41    	65      	120.5   	0.1     	0       	                
MDBPn42         	GAGE1           	JMDBPn42        	2.45    	65      	122.5   	0.1     	0       	                
MDBPn44         	GAGE1           	JMDBPn44        	2.42    	65      	121     	0.1     	0       	                
MDBPn45         	GAGE1           	JMDBPn45        	10.44   	65      	522     	0.1     	0       	                
MDBPn50         	GAGE1           	JMDBPn50        	7.37    	65      	368.5   	0.1     	0       	                
MDLNK61         	GAGE1           	JMDLNK61        	36.44   	50      	1821.9999	0.1     	0       	                
MDLNK69         	GAGE1           	JMDLNK69        	33.94   	50      	1696.9999	0.1     	0       	                
MDLNK73         	GAGE1           	JMDLNK73        	23.16   	65      	1158    	0.1     	0       	                
MDTHb31         	GAGE1           	JMDTHb31        	10.56   	65      	528     	0.1     	0       	                
MDTHn24         	GAGE1           	JMDTHn24        	9.95    	65      	497.5   	0.1     	0       	                
MDTHn26         	GAGE1           	JMDTHn26        	9.06    	65      	453     	0.1     	0       	                
MDTHn29         	GAGE1           	JMDTHn29        	13.34   	65      	667     	0.1     	0       	                
MHaBT45         	GAGE1           	JMHaBT45        	5.5     	65      	275     	0.1     	0       	                
MHaBT48         	GAGE1           	JMHaBT48        	11.08   	65      	554     	0.1     	0       	                
MHaBT51         	GAGE1           	JMHaBT51        	8.27    	65      	413.5   	0.1     	0       	                
MHaBT53         	GAGE1           	JMHaBT53        	3.93    	65      	196.5   	0.1     	0       	                
MHaBT56         	GAGE1           	JMHaBT56        	3.16    	65      	158     	0.1     	0       	                
MHaBT60         	GAGE1           	JMHaBT60        	4.52    	65      	226     	0.1     	0       	                
MHaBT61         	GAGE1           	JMHaBT61        	7.39    	65      	369.5   	0.1     	0       	                
MHDHa40         	GAGE1           	JMHDHa40        	22.91   	65      	895.5   	0.1     	0       	                
MHDHa41         	GAGE1           	JMHDHa41        	12.39   	65      	619.5   	0.1     	0       	                
MHDHa42         	GAGE1           	JMHDHa42        	13.1    	65      	655     	0.1     	0       	                
MHoaH74         	GAGE1           	JMHoaH74        	31.45   	65      	1572.5  	0.1     	0       	                
MHoHT38         	GAGE1           	JMHoHT38        	14.95   	65      	747.5   	0.1     	0       	                
MHoHT40         	GAGE1           	JMHoHT40        	24.08   	65      	1204    	0.1     	0       	                
MHoHT42         	GAGE1           	JMHoHT42        	23.17   	65      	1158.5  	0.1     	0       	                
MHoHT50         	GAGE1           	JMHoHT50        	37.98   	65      	1899    	0.1     	0       	                
MHoHTB2         	GAGE1           	JMHoHTB2        	33.77   	65      	1688.5  	0.1     	0       	                
MHoVT56         	GAGE1           	JMHoVT56        	39.94   	30      	1996.9999	0.1     	0       	                
MHoVT59         	GAGE1           	JMHoVT59        	17.9    	60      	895     	0.1     	0       	                
MLChT46         	GAGE1           	JMLChT46        	6.99    	65      	349.5   	0.1     	0       	                
MLChT54         	GAGE1           	JMLChT54        	9.53    	65      	476.5   	0.1     	0       	                
MLChT58         	GAGE1           	JMLChT58        	3.27    	65      	163.5   	0.1     	0       	                
MLChT60         	GAGE1           	JMLChT60        	2.71    	65      	135.5   	0.1     	0       	                
MLeQD38         	GAGE1           	JMLeQD38        	12.55   	65      	627.5   	0.1     	0       	                
MLeQD40         	GAGE1           	JMLeQD40        	4.61    	65      	230.5   	0.1     	0       	                
MLeQD49         	GAGE1           	JMLeQD49        	36.28   	65      	1813.9999	0.1     	0       	                
MLeQD52         	GAGE1           	JMLeQD52        	22.07   	65      	1103.5  	0.1     	0       	                
MLeQD60         	GAGE1           	JMLeQD60        	20.65   	65      	1032.5  	0.1     	0       	                
MLeVS61         	GAGE1           	JMLeVS61        	21.01   	65      	1050.5  	0.1     	0       	                
MLeVS68         	GAGE1           	JMLeVS68        	27.12   	65      	1356    	0.1     	0       	                
MLeVS75         	GAGE1           	JMLeVS75        	7.01    	65      	350.5   	0.1     	0       	                
MLeVS78         	GAGE1           	JMLeVS78        	4.6     	65      	230     	0.1     	0       	                
MLeVS79         	GAGE1           	JMLeVS79        	7.17    	65      	358.5   	0.1     	0       	                
MLyTKA4         	GAGE1           	JMLyTKA4        	31.88   	65      	1594    	0.1     	0       	                
MMDCh24         	GAGE1           	JMMDCh24        	3.64    	65      	182     	0.1     	0       	                
MNgDC25         	GAGE1           	JMNgDC25        	6.67    	65      	333.5   	0.1     	0       	                
MNgDC26         	GAGE1           	JMNgDC26        	2.91    	65      	145.5   	0.1     	0       	                
MNgDC68         	GAGE1           	JMNgDC68        	3.94    	65      	197     	0.1     	0       	                
MNgDC72         	GAGE1           	JMNgDC72        	3.73    	65      	186.5   	0.1     	0       	                
MNgDC74         	GAGE1           	JMNgDC74        	4.18    	65      	209     	0.1     	0       	                
MNgDC77         	GAGE1           	JMNgDC77        	10.26   	65      	513     	0.1     	0       	                
MNgDC81         	GAGE1           	JMNgDC81        	6.81    	65      	340.5   	0.1     	0       	                
MNgKi60         	GAGE1           	JMNgKi60        	34.15   	50      	1707.5001	0.1     	0       	                
MNgTh68         	GAGE1           	JMNgTh68        	4.9     	65      	245     	0.1     	0       	                
MNgTh69         	GAGE1           	JMNgTh69        	3.67    	65      	183.5   	0.1     	0       	                
MNgTN66         	GAGE1           	JMNgTN66        	4.19    	65      	209.5   	0.1     	0       	                
MNgTN68         	GAGE1           	JMNgTN68        	2.8     	65      	140     	0.1     	0       	                
MNgTN72         	GAGE1           	JMNgTN72        	2.93    	65      	146.5   	0.1     	0       	                
MNgTN74         	GAGE1           	JMNgTN74        	2.82    	65      	141     	0.1     	0       	                
MNgTN75         	GAGE1           	JMNgTN75        	2.91    	65      	145.5   	0.1     	0       	                
MNgVD42         	GAGE1           	JMNgVD42        	14.15   	65      	707.5   	0.1     	0       	                
MNgVD45         	GAGE1           	JMNgVD45        	14.68   	65      	734     	0.1     	0       	                
MNgVT50         	GAGE1           	JMNgVT50        	25.55   	65      	1277.5  	0.1     	0       	                
MNgVT57         	GAGE1           	JMNgVT57        	30.73   	65      	1536.5  	0.1     	0       	                
MNKKN54         	GAGE1           	JMNKKN54        	10.05   	65      	502.5   	0.1     	0       	                
MNKKN56         	GAGE1           	JMNKKN56        	10.88   	65      	544     	0.1     	0       	                
MNKKN60         	GAGE1           	JMNKKN60        	5.38    	65      	269     	0.1     	0       	                
MNKKN61         	GAGE1           	JMNKKN61        	2.24    	65      	112     	0.1     	0       	                
MNKKN62         	GAGE1           	JMNKKN62        	2.42    	65      	121     	0.1     	0       	                
MNKKN63         	GAGE1           	JMNKKN63        	3.09    	65      	154.5   	0.1     	0       	                
MNKKN64         	GAGE1           	JMNKKN64        	3.7     	65      	185     	0.1     	0       	                
MNKKN66         	GAGE1           	JMNKKN66        	3.65    	65      	182.5   	0.1     	0       	                
MNKKN67         	GAGE1           	JMNKKN67        	4.6     	65      	230     	0.1     	0       	                
MNTMK25         	GAGE1           	JMNTMK25        	14.3    	65      	715     	0.1     	0       	                
MPast54         	GAGE1           	JMPast54        	6.01    	65      	300.5   	0.1     	0       	                
MPast56         	GAGE1           	JMPast56        	3.91    	65      	195.5   	0.1     	0       	                
MPast59         	GAGE1           	JMPast59        	3.55    	65      	177.5   	0.1     	0       	                
MPast60         	GAGE1           	JMPast60        	3.35    	65      	167.5   	0.1     	0       	                
MPast62         	GAGE1           	JMPast62        	4.07    	65      	203.5   	0.1     	0       	                
MPhDP48         	GAGE1           	JMPhDP48        	22.72   	65      	1136    	0.1     	0       	                
MPhDP53         	GAGE1           	JMPhDP53        	9.36    	65      	468     	0.1     	0       	                
MPhNT52         	GAGE1           	JMPhNT52        	4.88    	65      	244     	0.1     	0       	                
MPhNT54         	GAGE1           	JMPhNT54        	4.58    	65      	229     	0.1     	0       	                
MPhNT57         	GAGE1           	JMPhNT57        	5.07    	65      	253.5   	0.1     	0       	                
MPKhK26         	GAGE1           	JMPKhK26        	2.88    	65      	144     	0.1     	0       	                
MPVHb84         	GAGE1           	JMPVHb84        	12.38   	65      	619     	0.1     	0       	                
MPVHb86         	GAGE1           	JMPVHb86        	4.8     	65      	240     	0.1     	0       	                
MPVHb88         	GAGE1           	JMPVHb88        	14.54   	30      	727     	0.1     	0       	                
MTKDa32         	GAGE1           	JMTKDa32        	5.13    	65      	256.5   	0.1     	0       	                
MToHT96         	GAGE1           	JMToHT96        	9.89    	65      	494.5   	0.1     	0       	                
MToHT98         	GAGE1           	JMToHT98        	17.19   	65      	859.5   	0.1     	0       	                
MToHT99         	GAGE1           	JMToHT99        	19.62   	65      	981     	0.1     	0       	                
MTQDb67         	GAGE1           	JMTQDb67        	5.69    	65      	284.5   	0.1     	0       	                
MTQDn63         	GAGE1           	JMTQDn63        	5.56    	65      	278     	0.1     	0       	                
MTrKC34         	GAGE1           	JMTrKC34        	12.7    	65      	635     	0.1     	0       	                
MTrND36         	GAGE1           	JMTrND36        	5.65    	65      	282.5   	0.1     	0       	                
MTrQT59         	GAGE1           	JMTrQT59        	6.39    	65      	319.5   	0.1     	0       	                
MTruD62         	GAGE1           	JMTruD62        	3.89    	65      	194.5   	0.1     	0       	                
MTruD63         	GAGE1           	JMTruD63        	4.28    	65      	214     	0.1     	0       	                
MTruD64         	GAGE1           	JMTruD64        	3.63    	65      	181.5   	0.1     	0       	                
MTruD65         	GAGE1           	JMTruD65        	2.27    	65      	113.5   	0.1     	0       	                
MTruD67         	GAGE1           	JMTruD67        	2.52    	65      	126     	0.1     	0       	                
MTruD70         	GAGE1           	JMTruD70        	2.52    	65      	126     	0.1     	0       	                
MTruD71         	GAGE1           	JMTruD71        	1.89    	65      	94.5    	0.1     	0       	                
MTruD72         	GAGE1           	JMTruD72        	1.96    	65      	98      	0.1     	0       	                
MTruSA0         	GAGE1           	JMTruSA0        	14.99   	65      	749.5   	0.1     	0       	                
MTruSA2         	GAGE1           	JMTruSA2        	45.37   	60      	2268.4999	0.1     	0       	                
MTruSA4         	GAGE1           	JMTruSA4        	102     	65      	3447.0001	0.1     	0       	                
MTruSA6         	GAGE1           	JMTruSA6        	100     	10      	6683.9996	0.1     	0       	                
MTSN2A6         	GAGE1           	JMTSN2A6        	144.36  	30      	1443.6  	0.1     	0       	                
MTuXg64         	GAGE1           	JMTuXg64        	2.99    	65      	149.5   	0.1     	0       	                
MTuXg66         	GAGE1           	JMTuXg66        	2.35    	65      	117.5   	0.1     	0       	                
MTuXg70         	GAGE1           	JMTuXg70        	2.05    	65      	102.5   	0.1     	0       	                
MTuXg72         	GAGE1           	JMTuXg72        	2.08    	65      	104     	0.1     	0       	                
MVaKi28         	GAGE1           	JMVaKi28        	10.68   	65      	534     	0.1     	0       	                
MVoVT70         	GAGE1           	JMVoVT70        	8.1     	65      	405     	0.1     	0       	                
MVoVT72         	GAGE1           	JMVoVT72        	5.72    	65      	286     	0.1     	0       	                
MVoVT74         	GAGE1           	JMVoVT74        	5.17    	65      	258.5   	0.1     	0       	                
MVoVT78         	GAGE1           	JMVoVT78        	8.01    	65      	400.5   	0.1     	0       	                
MVThS62         	GAGE1           	JMVThS62        	5.01    	65      	250.5   	0.1     	0       	                
MVThS64         	GAGE1           	JMVThS64        	4.41    	65      	220.5   	0.1     	0       	                
MVThS66         	GAGE1           	JMVThS66        	2.67    	65      	133.5   	0.1     	0       	                
MVThS68         	GAGE1           	JMVThS68        	2.12    	65      	106     	0.1     	0       	                
MVThS70         	GAGE1           	JMVThS70        	2.28    	65      	114     	0.1     	0       	                
MXVNT30         	GAGE1           	JMXVNT30        	28.41   	65      	1920.5  	0.1     	0       	                
RCsCb25         	GAGE1           	JRCsCb25        	13.57   	65      	678.5   	0.1     	0       	                
RCsCb26         	GAGE1           	JRCsCb26        	11.19   	65      	559.5   	0.1     	0       	                
RCsCb31         	GAGE1           	JRCsCb31        	21.4    	65      	820     	0.1     	0       	                
RCsCb36         	GAGE1           	JRCsCb36        	14.31   	65      	465.5   	0.1     	0       	                
RCsCb38         	GAGE1           	JRCsCb38        	13.68   	65      	434     	0.1     	0       	                
RCsCb46         	GAGE1           	JRCsCb46        	15.11   	65      	2655.5  	0.1     	0       	                
RNgTS53         	GAGE1           	JRNgTS53        	50.95   	50      	2547.5  	0.1     	0       	                
RNgTS62         	GAGE1           	JRNgTS62        	66.83   	65      	3341.5001	0.1     	0       	                
;RNLTN00
RNLTN00         	GAGE1           	JRNLTN02        	6.75    	65      	337.5   	0.1     	0       	                
RNLTN02         	GAGE1           	JRNLTN02        	15.33   	65      	766.5   	0.1     	0       	                
RNLTN06         	GAGE1           	JRNLTN06        	19.48   	65      	974     	0.1     	0       	                
RNLTN11         	GAGE1           	JRNLTN11        	27.45   	65      	1372.5  	0.1     	0       	                
RNLTN12         	GAGE1           	JRNLTN12        	12.57   	65      	628.5   	0.1     	0       	                
RNLTN15         	GAGE1           	JRNLTN15        	15.23   	65      	761.5   	0.1     	0       	                
RNLTN18         	GAGE1           	JRNLTN18        	15.25   	65      	762.5   	0.1     	0       	                
RNLTN20         	GAGE1           	JRNLTN20        	7.73    	65      	386.5   	0.1     	0       	                
RNLTN21         	GAGE1           	JRNLTN21        	5.06    	65      	253     	0.1     	0       	                
RNLTN22         	GAGE1           	JRNLTN22        	6.71    	65      	335.5   	0.1     	0       	                
RNLTN26         	GAGE1           	JRNLTN26        	7.63    	65      	381.5   	0.1     	0       	                
RNLTN30         	GAGE1           	JRNLTN30        	13.92   	65      	696     	0.1     	0       	                
RNLTN32         	GAGE1           	JRNLTN32        	6.37    	65      	318.5   	0.1     	0       	                
RNLTN36         	GAGE1           	JRNLTN36        	12.34   	65      	617     	0.1     	0       	                
RNLTN43         	GAGE1           	JRNLTN43        	11.1    	65      	555     	0.1     	0       	                
RNLTN48         	GAGE1           	JRNLTN48        	16.45   	65      	822.5   	0.1     	0       	                
RNLTN57         	GAGE1           	JRNLTN57        	10.1    	65      	505     	0.1     	0       	                
RNLTN61         	GAGE1           	JRNLTN61        	5.69    	65      	284.5   	0.1     	0       	                
RNLTN62         	GAGE1           	JRNLTN62        	3.96    	65      	198     	0.1     	0       	                
RNLTN66         	GAGE1           	JRNLTN66        	13.92   	65      	696     	0.1     	0       	                
RNLTN70         	GAGE1           	JRNLTN70        	14.98   	65      	749     	0.1     	0       	                
RNLTN71         	GAGE1           	JRNLTN71        	8.9     	65      	445     	0.1     	0       	                
RNLTN74         	GAGE1           	JRNLTN74        	12.08   	65      	604     	0.1     	0       	                
RNLTN78         	GAGE1           	JRNLTN78        	16.88   	65      	844     	0.1     	0       	                
RNLTN83         	GAGE1           	JRNLTN83        	11.24   	65      	562     	0.1     	0       	                
RNLTN86         	GAGE1           	JRNLTN86        	16.98   	65      	849     	0.1     	0       	                
RPhVH26         	GAGE1           	JRPhVH26        	29.87   	65      	993.5   	0.1     	0       	                
RVanT06         	GAGE1           	JRVanT06        	56.25   	65      	2812.5  	0.1     	0       	                
RVanT18         	GAGE1           	JRVanT18        	73.93   	65      	3696.5  	0.1     	0       	                

[SUBAREAS]
;;Subcatchment  	N-Imperv  	N-Perv    	S-Imperv  	S-Perv    	PctZero   	RouteTo   	PctRouted 
;;--------------	----------	----------	----------	----------	----------	----------	----------
CBaXe73         	0.02      	0.1       	2         	5         	0         	OUTLET    
CBhBn76         	0.02      	0.1       	2         	5         	0         	OUTLET    
CBhBn83         	0.02      	0.1       	2         	5         	0         	OUTLET    
CBhBn86         	0.02      	0.1       	2         	5         	0         	OUTLET    
CBhBn88         	0.02      	0.1       	2         	5         	0         	OUTLET    
CBhBn93         	0.02      	0.1       	2         	5         	0         	OUTLET    
CBhBn96         	0.02      	0.1       	2         	5         	0         	OUTLET    
CBunB65         	0.02      	0.1       	2         	5         	0         	OUTLET    
CBunB67         	0.02      	0.1       	2         	5         	0         	OUTLET    
CBunB73         	0.02      	0.1       	2         	5         	0         	OUTLET    
CBunB78         	0.02      	0.1       	2         	5         	0         	OUTLET    
CConHA0         	0.02      	0.1       	2         	5         	0         	OUTLET    
CConHA1         	0.02      	0.1       	2         	5         	0         	OUTLET    
CConHA2         	0.02      	0.1       	2         	5         	0         	OUTLET    
CConHA6         	0.02      	0.1       	2         	5         	0         	OUTLET    
CConHB2         	0.02      	0.1       	2         	5         	0         	OUTLET    
CDaDD90         	0.02      	0.1       	2         	5         	0         	OUTLET    
CDaDD93         	0.02      	0.1       	2         	5         	0         	OUTLET    
CDngDh          	0.02      	0.1       	2         	5         	0         	OUTLET    
CLyTK90         	0.02      	0.1       	2         	5         	0         	OUTLET    
CMieN28         	0.02      	0.1       	2         	5         	0         	OUTLET    
CMieN35         	0.02      	0.1       	2         	5         	0         	OUTLET    
CNgTH92         	0.02      	0.1       	2         	5         	0         	OUTLET    
CPhXL42         	0.02      	0.1       	2         	5         	0         	OUTLET    
CPhXL46         	0.02      	0.1       	2         	5         	0         	OUTLET    
CPhXL52         	0.02      	0.1       	2         	5         	0         	OUTLET    
CSuoD38         	0.02      	0.1       	2         	5         	0         	OUTLET    
CSuoD41         	0.02      	0.1       	2         	5         	0         	OUTLET    
CSuoD46         	0.02      	0.1       	2         	5         	0         	OUTLET    