[TITLE]

[OPTIONS]
FLOW_UNITS          	LPS
INFILTRATION        	HORTON
FLOW_ROUTING        	KINWAVE
START_DATE          	12/07/2007
START_TIME          	00:00:00
REPORT_START_DATE   	12/07/2007
REPORT_START_TIME   	00:00:00
END_DATE            	12/09/2007
END_TIME            	12:00:00
SWEEP_START         	01/01
SWEEP_END           	12/31
DRY_DAYS            	0
REPORT_STEP         	00:30:00
WET_STEP            	00:30:00
DRY_STEP            	01:00:00
ROUTING_STEP        	0:00:30 
ALLOW_PONDING       	NO
INERTIAL_DAMPING    	PARTIAL
VARIABLE_STEP       	0.75
LENGTHENING_STEP    	0
MIN_SURFAREA        	0
NORMAL_FLOW_LIMITED 	BOTH
SKIP_STEADY_STATE   	NO
FORCE_MAIN_EQUATION 	H-W
LINK_OFFSETS        	DEPTH
MIN_SLOPE           	0

[EVAPORATION]
;;Type      	Parameters
;;----------	----------
MONTHLY     	1.57  	1.57  	2.27  	4.43  	7.07  	11.9  	14.43 	14.87 	12.9  	7.17  	3.33  	1.8   
DRY_ONLY     NO

[RAINGAGES]
;;              	Rain     	Time  	Snow  	Data      
;;Name          	Type     	Intrvl	Catch 	Source    
;;--------------	---------	------	------	----------
sangan          	VOLUME   	0:30  	1.0   	TIMESERIES	sangan          
hafthoz         	VOLUME   	0:30  	1.0   	TIMESERIES	sangan          
Geophysis       	VOLUME   	0:30  	1.0   	TIMESERIES	sangan          
yousefabad      	VOLUME   	0:30  	1.0   	TIMESERIES	sangan          
shomal          	VOLUME   	6:00  	1.0   	TIMESERIES	shomal86        

[SUBCATCHMENTS]
;;              	                	                	Total   	Pcnt.   	        	Pcnt.   	Curb    	Snow    
;;Name          	Raingage        	Outlet          	Area    	Imperv  	Width   	Slope   	Length  	Pack    
;;--------------	----------------	----------------	--------	--------	--------	--------	--------	--------
S1              	shomal          	17              	2550    	50      	9918    	54.2    	0       	                
S2              	shomal          	18              	330     	50      	4276    	38      	0       	                
S3              	shomal          	20              	328.6   	50      	2816    	15.9    	0       	                
S4              	shomal          	20              	168     	50      	2084    	19.3    	0       	                
S5              	shomal          	20              	132     	50      	1066    	7.1     	0       	                
S6              	shomal          	21              	235     	50      	1896    	5.8     	0       	                
S7              	shomal          	22              	141     	50      	2038    	6.1     	0       	                
S8              	shomal          	23              	485     	50      	1857    	7.3     	0       	                
S9              	shomal          	32              	839     	50      	2621    	3.7     	0       	                
S10             	shomal          	28              	543     	50      	2738    	6.6     	0       	                
S11             	shomal          	24              	2169    	50      	13984   	51.6    	0       	                
S12             	shomal          	25              	225     	50      	4216    	29.5    	0       	                
S13             	shomal          	26              	255     	50      	3605    	32.4    	0       	                
S14             	shomal          	25              	433     	50      	5477    	30.9    	0       	                
S15             	shomal          	27              	485     	50      	1950    	8       	0       	                
S16             	shomal          	35              	312     	50      	5402    	11.2    	0       	                

[SUBAREAS]
;;Subcatchment  	N-Imperv  	N-Perv    	S-Imperv  	S-Perv    	PctZero   	RouteTo   	PctRouted 
;;--------------	----------	----------	----------	----------	----------	----------	----------
S1              	0.013     	0.2       	1.27      	2.54      	25        	PERVIOUS  	70        
S2              	0.013     	0.2       	1.27      	2.54      	20        	PERVIOUS  	65        
S3              	0.013     	0.2       	1.27      	2.54      	20        	PERVIOUS  	80        
S4              	0.013     	0.2       	1.27      	2.54      	20        	PERVIOUS  	65        
S5              	0.013     	0.2       	0.05      	0.05      	20        	PERVIOUS  	60        
S6              	0.013     	0.2       	1.27      	2.54      	20        	PERVIOUS  	80        
S7              	0.013     	0.2       	1.27      	2.54      	20        	PERVIOUS  	70        
S8              	0.013     	0.2       	1.27      	2.54      	20        	PERVIOUS  	70        
S9              	0.013     	0.2       	1.27      	2.54      	20        	PERVIOUS  	97        
S10             	0.013     	0.2       	1.27      	2.54      	20        	PERVIOUS  	80        
S11             	0.013     	0.2       	1.27      	2.54      	20        	PERVIOUS  	20        
S12             	0.013     	0.2       	1.27      	2.54      	20        	PERVIOUS  	80        
S13             	0.013     	0.2       	1.27      	2.54      	20        	PERVIOUS  	60        
S14             	0.013     	0.2       	1.27      	2.54      	20        	PERVIOUS  	80        
S15             	0.013     	0.2       	1.27      	2.54      	20        	PERVIOUS  	80        
S16             	0.013     	0.2       	1.27      	2.54      	20        	PERVIOUS  	60        

[INFILTRATION]
;;Subcatchment  	MaxRate   	MinRate   	Decay     	DryTime   	MaxInfil  
;;--------------	----------	----------	----------	----------	----------
S1              	190.5     	9.65      	3         	7         	0         
S2              	190.5     	9.65      	3         	7         	0         
S3              	190.5     	9.65      	3         	7         	0         
S4              	190.5     	9.65      	3         	7         	0         
S5              	190.5     	9.65      	3         	7         	0         
S6              	190.5     	9.65      	3         	7         	0         
S7              	190.5     	9.65      	3         	7         	0         
S8              	190.5     	9.65      	3         	7         	0         
S9              	190.5     	9.65      	3         	7         	0         
S10             	190.5     	9.65      	3         	7         	0         
S11             	190.5     	9.65      	3         	7         	0         
S12             	190.5     	9.65      	3         	7         	0         
S13             	190.5     	9.65      	3         	7         	0         
S14             	190.5     	9.65      	3         	7         	0         
S15             	190.5     	9.65      	3         	7         	0         
S16             	190.5     	9.65      	3         	7         	0         

[LID_CONTROLS]
;;              	Type/Layer	Parameters
;;--------------	----------	----------
greenroofs      	BC
greenroofs      	SURFACE   	12        	0.0       	0.1       	1.0       	5         
greenroofs      	SOIL      	24        	0.5       	0.2       	0.1       	0.5       	10.0      	3.5       
greenroofs      	STORAGE   	12        	0.75      	10        	0         
greenroofs      	DRAIN     	.16       	0.5       	0         	6         

[LID_USAGE]
;;Subcatchment  	LID Process     	Number 	Area      	Width     	InitSatur 	FromImprv 	ToPerv    	Report File
;;--------------	----------------	-------	----------	----------	----------	----------	----------	-----------
S1              	greenroofs      	707    	350       	0         	0         	00        	1         
S2              	greenroofs      	707    	350       	0         	0         	00        	1         
S3              	greenroofs      	707    	350       	0         	0         	00        	1         
S4              	greenroofs      	707    	350       	0         	0         	00        	1         
S5              	greenroofs      	707    	350       	0         	0         	00        	1         
S6              	greenroofs      	707    	350       	0         	0         	00        	1         
S7              	greenroofs      	707    	350       	0         	0         	00        	1         
S8              	greenroofs      	707    	350       	0         	0         	00        	1         
S9              	greenroofs      	707    	350       	0         	0         	00        	1         
S10             	greenroofs      	707    	350       	0         	0         	00        	1         
S11             	greenroofs      	707    	350       	0         	0         	00        	1         
S12             	greenroofs      	707    	350       	0         	0         	00        	1         
S13             	greenroofs      	707    	350       	0         	0         	00        	1         
S14             	greenroofs      	707    	350       	0         	0         	00        	1         
S15             	greenroofs      	707    	350       	0         	0         	00        	1         
S16             	greenroofs      	707    	350       	0         	0         	00        	1         

[JUNCTIONS]
;;              	Invert    	Max.      	Init.     	Surcharge 	Ponded    
;;Name          	Elev.     	Depth     	Depth     	Depth     	Area      
;;--------------	----------	----------	----------	----------	----------
17              	1699      	0         	0         	0         	0         
18              	1648      	0         	0         	0         	0         
20              	1516      	0         	0         	0         	0         
21              	1488.5    	0         	0         	0         	0         
22              	1400      	0         	0         	0         	0         
23              	1285.5    	0         	0         	0         	0         
24              	1670      	0         	0         	0         	0         
25              	1534      	0         	0         	0         	0         
26              	1522      	0         	0         	0         	0         
27              	1500      	0         	0         	0         	0         
28              	1270      	0         	0         	0         	0         
29              	3876      	0         	0         	0         	0         
30              	3000      	0         	0         	0         	0         
31              	1329      	0         	0         	0         	0         
32              	1387.7    	0         	0         	0         	0         
33              	1269.5    	0         	0         	0         	0         
34              	1285      	0         	0         	0         	0         
35              	1270.5    	0         	0         	0         	0         
36              	0         	0         	0         	0         	0         

[CONDUITS]
;;              	Inlet           	Outlet          	          	Manning   	Inlet     	Outlet    	Init.     	Max.      
;;Name          	Node            	Node            	Length    	N         	Offset    	Offset    	Flow      	Flow      
;;--------------	----------------	----------------	----------	----------	----------	----------	----------	----------
1               	29              	17              	8670      	0.027     	0         	0         	0         	0         
2               	17              	18              	871       	0.027     	0         	0         	0         	0         
3               	18              	20              	2816      	0.017     	0         	0         	0         	0         
4               	20              	21              	856       	0.017     	0         	0         	0         	0         
5               	21              	22              	2333      	0.017     	0         	0         	0         	0         
8               	30              	24              	9126      	0.017     	0         	0         	0         	0         
9               	24              	25              	2108      	0.017     	0         	0         	0         	0         
10              	25              	26              	257       	0.017     	0         	0         	0         	0         
11              	26              	27              	1067      	0.017     	0         	0         	0         	0         
13              	22              	31              	1885      	0.017     	0         	0         	0         	0         
14              	31              	23              	1787      	0.017     	0         	0         	0         	0         
15              	32              	23              	2305      	0.017     	0         	0         	0         	0         
16              	28              	33              	10        	0.027     	0         	0         	0         	0         
17              	23              	34              	38        	0.027     	0         	0         	0         	0         
18              	34              	28              	2700      	0.027     	0         	0         	0         	0         
20              	27              	35              	5418      	0.017     	0         	0         	0         	0         
21              	35              	28              	3         	0.017     	0         	0         	0         	0         

[XSECTIONS]
;;Link          	Shape       	Geom1           	Geom2     	Geom3     	Geom4     	Barrels   
;;--------------	------------	----------------	----------	----------	----------	----------
1               	RECT_OPEN   	4.20            	8         	0         	0         	1         	          
2               	RECT_OPEN   	4.20            	8         	0         	0         	1         	          
3               	RECT_OPEN   	4.20            	8         	0         	0         	1         	          
4               	RECT_OPEN   	3.20            	7.30      	0         	0         	1         	          
5               	RECT_OPEN   	3               	10        	0         	0         	1         	          
8               	RECT_OPEN   	4               	5         	0         	0         	1         	          
9               	RECT_OPEN   	4               	5         	0         	0         	1         	          
10              	CIRCULAR    	1               	0         	0         	0         	1         	          
11              	RECT_OPEN   	4               	5         	0         	0         	1         	          
13              	CIRCULAR    	1               	0         	0         	0         	1         	          
14              	RECT_CLOSED 	4               	8.5       	0         	0         	1         	          
15              	RECT_OPEN   	2               	5         	0         	0         	1         	          
16              	RECT_OPEN   	4               	8.5       	0         	0         	1         	          
17              	RECT_OPEN   	4               	8.5       	0         	0         	1         	          
18              	RECT_OPEN   	4               	8.5       	0         	0         	1         	          
20              	RECT_OPEN   	5               	5         	0         	0         	1         	          
21              	RECT_OPEN   	5               	5         	0         	0         	1         	          

[LOSSES]
;;Link          	Inlet     	Outlet    	Average   	Flap Gate 
;;--------------	----------	----------	----------	----------

[POLLUTANTS]
;;              	Mass  	Rain      	GW        	I&I       	Decay     	Snow 	Co-Pollut.      	Co-Pollut.	DWF       
;;Name          	Units 	Concen.   	Concen.   	Concen.   	Coeff.    	Only 	Name            	Fraction  	Concen.   
;;--------------	------	----------	----------	----------	----------	-----	----------------	----------	----------
TSS             	MG/L  	10        	0.0       	0.0       	0.0       	NO   	*               	0.0       	0.0       
TP              	MG/L  	0.0       	0.0       	0.0       	0.0       	NO   	*               	0.0       	0.0       
TKN             	MG/L  	0.0       	0.0       	0.0       	0.0       	NO   	*               	0.0       	0.0       

[LANDUSES]
;;              	Cleaning  	Fraction  	Last      
;;Name          	Interval  	Available 	Cleaned   
;;--------------	----------	----------	----------
residential     	0         	0         	0         
commercial-industrial	0         	0         	0         

[COVERAGES]
;;Subcatchment  	Land Use        	Percent   
;;--------------	----------------	----------
S2              	residential     	4         
S3              	residential     	6         
S3              	commercial-industrial	1         
S4              	residential     	8         
S5              	residential     	36        
S5              	commercial-industrial	3         
S6              	residential     	22        
S6              	commercial-industrial	3         
S7              	residential     	27        
S7              	commercial-industrial	1         
S8              	residential     	30        
S8              	commercial-industrial	3         
S9              	residential     	49        
S9              	commercial-industrial	2         
S10             	residential     	27        
S10             	commercial-industrial	3         
S12             	residential     	8.76      
S13             	residential     	19        
S14             	residential     	8         
S14             	commercial-industrial	1         
S15             	residential     	29        
S15             	commercial-industrial	2         
S16             	residential     	22        
S16             	commercial-industrial	1         

[LOADINGS]
;;Subcatchment  	Pollutant       	Loading   
;;--------------	----------------	----------
S9              	TKN             	5.5       

[BUILDUP]
;;LandUse       	Pollutant       	Function  	Coeff1    	Coeff2    	Coeff3    	Normalizer
;;--------------	----------------	----------	----------	----------	----------	----------
residential     	TSS             	SAT       	18.25     	.65       	0.0       	AREA      
residential     	TP              	SAT       	0.285     	0.0025    	0.0       	AREA      
residential     	TKN             	SAT       	2.85      	0.08      	0.0       	AREA      
commercial-industrial	TSS             	EXP       	130       	6.15      	0.0       	AREA      
commercial-industrial	TP              	NONE      	0.0       	0.0       	0.0       	AREA      
commercial-industrial	TKN             	NONE      	0.0       	0.0       	0.0       	AREA      

[WASHOFF]
;;              	                	          	          	          	Cleaning  	BMP       
;;Land Use      	Pollutant       	Function  	Coeff1    	Coeff2    	Effic.    	Effic.    
;;--------------	----------------	----------	----------	----------	----------	----------
residential     	TSS             	EXP       	.47       	2         	0.0       	15        
residential     	TP              	EXP       	0.18      	0.04      	0.0       	15        
residential     	TKN             	EXP       	0.36      	0.6       	0.0       	5         
commercial-industrial	TSS             	EXP       	0.3       	2.5       	0.0       	0.0       
commercial-industrial	TP              	EMC       	0.0       	0.0       	0.0       	0.0       
commercial-industrial	TKN             	EMC       	0.0       	0.0       	0.0       	0.0       

[DWF]
;;              	                	Average   	Time      
;;Node          	Parameter       	Value     	Patterns  
;;--------------	----------------	----------	----------
32              	FLOW            	0.7       

[TIMESERIES]
;;Name          	Date      	Time      	Value     
;;--------------	----------	----------	----------
sangan          	3/14/2004 	0:0       	0         
sangan          	3/14/2004 	0:30      	1.56      
sangan          	3/14/2004 	1:00      	1.21      
sangan          	3/14/2004 	1:30      	0.20      
sangan          	3/14/2004 	2:00      	0.45      
sangan          	3/14/2004 	2:30      	0.59      
sangan          	3/14/2004 	3:00      	1.42      
sangan          	3/14/2004 	3:30      	1.26      
sangan          	3/14/2004 	4:00      	0.56      
sangan          	3/14/2004 	4:30      	0.41      
sangan          	3/14/2004 	5:00      	0.46      
sangan          	3/14/2004 	5:30      	0.45      
sangan          	3/14/2004 	6:00      	0.70      

shomal          	04/07/2011	00:00     	0         
shomal          	04/07/2011	00:30     	0         
shomal          	04/07/2011	01:00     	0         
shomal          	04/07/2011	01:30     	0.373333333
shomal          	04/07/2011	02:00     	0.293333333
shomal          	04/07/2011	02:30     	0.06      
shomal          	04/07/2011	03:00     	0         
shomal          	04/07/2011	03:30     	0         
shomal          	04/07/2011	04:00     	0         
shomal          	04/07/2011	04:30     	0.023333333
shomal          	04/07/2011	05:00     	0         
shomal          	04/07/2011	05:30     	0         
shomal          	04/07/2011	06:00     	0         
shomal          	04/07/2011	06:30     	0         
shomal          	04/07/2011	07:00     	0         
shomal          	04/07/2011	07:30     	0         
shomal          	04/07/2011	08:00     	0         
shomal          	04/07/2011	08:30     	0         
shomal          	04/07/2011	09:00     	0         
shomal          	04/07/2011	09:30     	0         
shomal          	04/07/2011	10:00     	0         
shomal          	04/07/2011	10:30     	0         
shomal          	04/07/2011	11:00     	0         
shomal          	04/07/2011	11:30     	0         
shomal          	04/07/2011	12:00     	0         
shomal          	04/07/2011	12:30     	0         
shomal          	04/07/2011	13:00     	0         
shomal          	04/07/2011	13:30     	0         
shomal          	04/07/2011	14:00     	0         
shomal          	04/07/2011	14:30     	0.006666667
shomal          	04/07/2011	15:00     	0.01      
shomal          	04/07/2011	15:30     	0.006666667
shomal          	04/07/2011	16:00     	0         
shomal          	04/07/2011	16:30     	0.01      
shomal          	04/07/2011	17:00     	0         
shomal          	04/07/2011	17:30     	0.01      
shomal          	04/07/2011	18:00     	0.003333333
shomal          	04/07/2011	18:30     	0.16      
shomal          	04/07/2011	19:00     	0         
shomal          	04/07/2011	19:30     	0         
shomal          	04/07/2011	20:00     	0         
shomal          	04/07/2011	20:30     	0         
shomal          	04/07/2011	21:00     	0         
shomal          	04/07/2011	21:30     	0         
shomal          	04/07/2011	22:00     	0         
shomal          	04/07/2011	22:30     	0         
shomal          	04/07/2011	23:00     	0.103333333
shomal          	04/07/2011	23:30     	0         
shomal          	04/07/2011	24:00     	0         

shomal86        	12/7/2007 	00:00     	0         
shomal86        	12/7/2007 	06:00     	31.1      
shomal86        	12/7/2007 	12:00     	0         
shomal86        	12/7/2007 	18:00     	0         
shomal86        	12/7/2007 	24:00     	0         

[REPORT]
INPUT     	NO
CONTROLS  	NO
SUBCATCHMENTS	ALL
NODES	ALL
LINKS	ALL

[TAGS]

[MAP]
DIMENSIONS	528338.524	3952423.349	536817.608	3972788.652
Units     	Meters

[COORDINATES]
;;Node          	X-Coord           	Y-Coord           
;;--------------	------------------	------------------
17              	534743.091        	3962753.664       
18              	534979.064        	3961998.386       
20              	535080.252        	3959410.479       
21              	535084.716        	3958599.821       
22              	534785.591        	3956544.340       
23              	533178.488        	3953855.036       
24              	530797.590        	3961645.110       
25              	530812.899        	3959803.449       
26              	530782.351        	3959523.769       
27              	530864.279        	3958620.983       
28              	530543.087        	3953508.227       
29              	534575.516        	3970883.476       
30              	531079.979        	3968907.737       
31              	534594.889        	3954476.871       
32              	533466.000        	3955942.000       
33              	529898.421        	3953460.631       
34              	532922.344        	3953821.564       
35              	530560.746        	3953789.139       

[VERTICES]
;;Link          	X-Coord           	Y-Coord           
;;--------------	------------------	------------------
15              	533265.388        	3955546.117       
15              	533334.481        	3955148.833       
15              	533438.120        	3954803.370       
15              	533489.939        	3954354.266       

[Polygons]
;;Subcatchment  	X-Coord           	Y-Coord           
;;--------------	------------------	------------------
S1              	533793.895        	3971862.956       
S1              	533834.958        	3971853.212       
S1              	533875.325        	3971816.325       
S1              	533876.021        	3971770.390       
S1              	534157.200        	3971772.478       
S1              	534248.375        	3971676.432       
S1              	534252.551        	3971633.976       
S1              	534331.893        	3971624.928       
S1              	534419.588        	3971548.370       
S1              	534718.166        	3971552.546       
S1              	534798.901        	3971479.467       
S1              	534993.778        	3971469.723       
S1              	535140.631        	3971331.918       
S1              	535146.199        	3971264.407       
S1              	535225.541        	3971227.520       
S1              	535229.021        	3971172.536       
S1              	535362.651        	3971171.841       
S1              	535422.274        	3971102.203       
S1              	536196.831        	3971091.273       
S1              	536208.379        	3971038.482       
S1              	536266.120        	3971026.933       
S1              	536292.516        	3970962.593       
S1              	536353.557        	3970941.146       
S1              	536424.496        	3970845.461       
S1              	536432.195        	3970381.057       
S1              	536367.671        	3970331.198       
S1              	536364.739        	3970213.882       
S1              	536285.551        	3970146.426       
S1              	536273.819        	3969800.345       
S1              	536212.229        	3969738.755       
S1              	536209.296        	3969656.634       
S1              	536147.705        	3969592.110       
S1              	536059.718        	3969586.245       
S1              	535918.940        	3969436.667       
S1              	535901.343        	3969395.607       
S1              	535833.886        	3969339.882       
S1              	535830.953        	3969178.573       
S1              	535748.833        	3969137.513       
S1              	535748.833        	3968908.748       
S1              	535684.309        	3968850.090       
S1              	535669.645        	3968688.782       
S1              	535698.973        	3968656.520       
S1              	535704.839        	3968310.439       
S1              	535675.510        	3968284.043       
S1              	535663.779        	3968225.386       
S1              	535751.765        	3968152.063       
S1              	535742.967        	3968014.218       
S1              	535690.175        	3967973.157       
S1              	535663.779        	3967811.849       
S1              	535605.121        	3967759.057       
S1              	535596.974        	3967392.283       
S1              	535659.542        	3967376.641       
S1              	535675.184        	3967324.501       
S1              	535753.395        	3967329.715       
S1              	535831.605        	3967235.862       
S1              	535826.391        	3967183.722       
S1              	535894.173        	3967142.010       
S1              	535909.815        	3967095.084       
S1              	535977.598        	3967079.442       
S1              	535977.598        	3967042.944       
S1              	535930.671        	3967011.659       
S1              	535930.671        	3966928.235       
S1              	535904.601        	3966896.951       
S1              	535904.601        	3966730.102       
S1              	535862.889        	3966683.176       
S1              	535878.531        	3966636.250       
S1              	535821.177        	3966568.468       
S1              	535831.605        	3966448.545       
S1              	535737.753        	3966333.837       
S1              	535675.184        	3966333.837       
S1              	535675.184        	3966172.202       
S1              	535607.402        	3966120.062       
S1              	535607.402        	3966067.922       
S1              	535529.192        	3965994.926       
S1              	535518.764        	3965807.221       
S1              	535471.838        	3965807.221       
S1              	535450.982        	3965749.867       
S1              	535310.203        	3965614.302       
S1              	535299.775        	3965520.450       
S1              	535362.343        	3965431.812       
S1              	535383.199        	3965207.609       
S1              	535445.768        	3965155.468       
S1              	535456.196        	3964983.406       
S1              	535372.771        	3964926.052       
S1              	535383.199        	3964863.483       
S1              	535299.775        	3964753.989       
S1              	535294.561        	3964686.207       
S1              	535231.993        	3964665.351       
S1              	535216.351        	3964425.506       
S1              	535294.561        	3964342.081       
S1              	535284.133        	3964170.019       
S1              	535216.351        	3964149.163       
S1              	535169.425        	3964060.524       
S1              	535117.284        	3964060.524       
S1              	535065.144        	3963982.314       
S1              	535002.576        	3963982.314       
S1              	535002.576        	3963825.893       
S1              	535128.334        	3963724.768       
S1              	535132.275        	3963211.490       
S1              	535076.550        	3963114.705       
S1              	535070.684        	3963070.711       
S1              	535035.489        	3963029.651       
S1              	535035.489        	3962921.134       
S1              	535041.355        	3962885.940       
S1              	535006.161        	3962792.087       
S1              	534844.852        	3962795.020       