[TITLE]
Scenario: Lower Northern Allegheny Production H&H Model
Company: Camp Dresser & McKee Inc.
Client: Allegheny County Sanitary Authority
Project: System Wide Tier II Hydrologic and Hydraulic Model
Date: April 2008
Last Updated: 04/22/08
Vertical datum: NGVD feet
Horizontal datum: State Plane 1983 feet Pennsylvania South

[OPTIONS]
FLOW_UNITS           CFS
INFILTRATION         GREEN_AMPT
FLOW_ROUTING         DYNWAVE
START_DATE           01/01/2005
START_TIME           00:00:00
REPORT_START_DATE    01/01/2005
REPORT_START_TIME    00:00:00
END_DATE             01/03/2005
END_TIME             00:00:00
SWEEP_START          01/01
SWEEP_END            12/31
DRY_DAYS             0
REPORT_STEP          00:15:00
WET_STEP             00:01:00
DRY_STEP             00:01:00
ROUTING_STEP         0:00:10
ALLOW_PONDING        NO
INERTIAL_DAMPING     NONE
VARIABLE_STEP        0.75
LENGTHENING_STEP     5.0
MIN_SURFAREA         12.57
NORMAL_FLOW_LIMITED  SLOPE
SKIP_STEADY_STATE    NO
IGNORE_RAINFALL      NO
FORCE_MAIN_EQUATION  H-W
LINK_OFFSETS         DEPTH

[FILES]
USE INFLOWS "C:\ALCOSAN\LNA\LNA-Inflows-Jan05Dec05.dat"
USE HOTSTART "C:\ALCOSAN\LNA\LNA-2005.hsf"
USE RAINFALL "C:\ALCOSAN\LNA\LNA-2005.rff"

[EVAPORATION]
;;Type       Parameters
;;---------- ----------
FILE         1.0    1.0    1.0    1.0    1.0    1.0    1.0    1.0    1.0    1.0    1.0    1.0

[TEMPERATURE]
FILE         "C:\Alcosan\LNA\Climate\Climate_Apr2000_Dec2007.dat" 01/01/2005
WINDSPEED    FILE
SNOWMELT               34 0.5 0.6 850 40.4 20
ADC          IMPERVIOUS 1.0 1.0 1.0 1.0 1.0 1.0 1.0 1.0 1.0 1.0
ADC          PERVIOUS   1.0 1.0 1.0 1.0 1.0 1.0 1.0 1.0 1.0 1.0

[RAINGAGES]
;;               Rain      Recd.  Snow   Data
;;Name           Type      Freq.  Catch  Source
;;-------------- --------- ------ ------ ----------
GAGE1            INTENSITY 0.25   1      FILE       "C:\Alcosan\LNA\Precipitation\LNA-RainInt-Jan05Dec05.dat" GAGE1      IN
GAGE2            INTENSITY 0.25   1      FILE       "C:\Alcosan\LNA\Precipitation\LNA-RainInt-Jan05Dec05.dat" GAGE2      IN
GAGE3            INTENSITY 0.25   1      FILE       "C:\Alcosan\LNA\Precipitation\LNA-RainInt-Jan05Dec05.dat" GAGE3      IN
GAGE4            INTENSITY 0.25   1      FILE       "C:\Alcosan\LNA\Precipitation\LNA-RainInt-Jan05Dec05.dat" GAGE4      IN
GAGE5            INTENSITY 0.25   1      FILE       "C:\Alcosan\LNA\Precipitation\LNA-RainInt-Jan05Dec05.dat" GAGE5      IN
GAGE6            INTENSITY 0.25   1      FILE       "C:\Alcosan\LNA\Precipitation\LNA-RainInt-Jan05Dec05.dat" GAGE6      IN
GAGE7            INTENSITY 0.25   1      FILE       "C:\Alcosan\LNA\Precipitation\LNA-RainInt-Jan05Dec05.dat" GAGE7      IN
GAGE8            INTENSITY 0.25   1      FILE       "C:\Alcosan\LNA\Precipitation\LNA-RainInt-Jan05Dec05.dat" GAGE8      IN
GAGE9            INTENSITY 0.25   1      FILE       "C:\Alcosan\LNA\Precipitation\LNA-RainInt-Jan05Dec05.dat" GAGE9      IN
GAGE10           INTENSITY 0.25   1      FILE       "C:\Alcosan\LNA\Precipitation\LNA-RainInt-Jan05Dec05.dat" GAGE10     IN
GAGE11           INTENSITY 0.25   1      FILE       "C:\Alcosan\LNA\Precipitation\LNA-RainInt-Jan05Dec05.dat" GAGE11     IN
GAGE12           INTENSITY 0.25   1      FILE       "C:\Alcosan\LNA\Precipitation\LNA-RainInt-Jan05Dec05.dat" GAGE12     IN
GAGE13           INTENSITY 0.25   1      FILE       "C:\Alcosan\LNA\Precipitation\LNA-RainInt-Jan05Dec05.dat" GAGE13     IN
GAGE14           INTENSITY 0.25   1      FILE       "C:\Alcosan\LNA\Precipitation\LNA-RainInt-Jan05Dec05.dat" GAGE14     IN
GAGE15           INTENSITY 0.25   1      FILE       "C:\Alcosan\LNA\Precipitation\LNA-RainInt-Jan05Dec05.dat" GAGE15     IN
GAGE16           INTENSITY 0.25   1      FILE       "C:\Alcosan\LNA\Precipitation\LNA-RainInt-Jan05Dec05.dat" GAGE16     IN
GAGE17           INTENSITY 0.25   1      FILE       "C:\Alcosan\LNA\Precipitation\LNA-RainInt-Jan05Dec05.dat" GAGE17     IN
GAGE18           INTENSITY 0.25   1      FILE       "C:\Alcosan\LNA\Precipitation\LNA-RainInt-Jan05Dec05.dat" GAGE18     IN
GAGE19           INTENSITY 0.25   1      FILE       "C:\Alcosan\LNA\Precipitation\LNA-RainInt-Jan05Dec05.dat" GAGE19     IN
GAGE20           INTENSITY 0.25   1      FILE       "C:\Alcosan\LNA\Precipitation\LNA-RainInt-Jan05Dec05.dat" GAGE20     IN
GAGE21           INTENSITY 0.25   1      FILE       "C:\Alcosan\LNA\Precipitation\LNA-RainInt-Jan05Dec05.dat" GAGE21     IN
GAGE22           INTENSITY 0.25   1      FILE       "C:\Alcosan\LNA\Precipitation\LNA-RainInt-Jan05Dec05.dat" GAGE22     IN
GAGE23           INTENSITY 0.25   1      FILE       "C:\Alcosan\LNA\Precipitation\LNA-RainInt-Jan05Dec05.dat" GAGE23     IN
GAGE24           INTENSITY 0.25   1      FILE       "C:\Alcosan\LNA\Precipitation\LNA-RainInt-Jan05Dec05.dat" GAGE24     IN
GAGE25           INTENSITY 0.25   1      FILE       "C:\Alcosan\LNA\Precipitation\LNA-RainInt-Jan05Dec05.dat" GAGE25     IN
GAGE26           INTENSITY 0.25   1      FILE       "C:\Alcosan\LNA\Precipitation\LNA-RainInt-Jan05Dec05.dat" GAGE26     IN
GAGE27           INTENSITY 0.25   1      FILE       "C:\Alcosan\LNA\Precipitation\LNA-RainInt-Jan05Dec05.dat" GAGE27     IN
GAGE28           INTENSITY 0.25   1      FILE       "C:\Alcosan\LNA\Precipitation\LNA-RainInt-Jan05Dec05.dat" GAGE28     IN
GAGE29           INTENSITY 0.25   1      FILE       "C:\Alcosan\LNA\Precipitation\LNA-RainInt-Jan05Dec05.dat" GAGE29     IN
GAGE30           INTENSITY 0.25   1      FILE       "C:\Alcosan\LNA\Precipitation\LNA-RainInt-Jan05Dec05.dat" GAGE30     IN
GAGE31           INTENSITY 0.25   1      FILE       "C:\Alcosan\LNA\Precipitation\LNA-RainInt-Jan05Dec05.dat" GAGE31     IN
GAGE32           INTENSITY 0.25   1      FILE       "C:\Alcosan\LNA\Precipitation\LNA-RainInt-Jan05Dec05.dat" GAGE32     IN
GAGE33           INTENSITY 0.25   1      FILE       "C:\Alcosan\LNA\Precipitation\LNA-RainInt-Jan05Dec05.dat" GAGE33     IN
GAGE34           INTENSITY 0.25   1      FILE       "C:\Alcosan\LNA\Precipitation\LNA-RainInt-Jan05Dec05.dat" GAGE34     IN
GAGE35           INTENSITY 0.25   1      FILE       "C:\Alcosan\LNA\Precipitation\LNA-RainInt-Jan05Dec05.dat" GAGE35     IN
GAGE36           INTENSITY 0.25   1      FILE       "C:\Alcosan\LNA\Precipitation\LNA-RainInt-Jan05Dec05.dat" GAGE36     IN
GAGE37           INTENSITY 0.25   1      FILE       "C:\Alcosan\LNA\Precipitation\LNA-RainInt-Jan05Dec05.dat" GAGE37     IN
GAGE38           INTENSITY 0.25   1      FILE       "C:\Alcosan\LNA\Precipitation\LNA-RainInt-Jan05Dec05.dat" GAGE38     IN
GAGE39           INTENSITY 0.25   1      FILE       "C:\Alcosan\LNA\Precipitation\LNA-RainInt-Jan05Dec05.dat" GAGE39     IN
GAGE40           INTENSITY 0.25   1      FILE       "C:\Alcosan\LNA\Precipitation\LNA-RainInt-Jan05Dec05.dat" GAGE40     IN
GAGE41           INTENSITY 0.25   1      FILE       "C:\Alcosan\LNA\Precipitation\LNA-RainInt-Jan05Dec05.dat" GAGE41     IN
GAGE42           INTENSITY 0.25   1      FILE       "C:\Alcosan\LNA\Precipitation\LNA-RainInt-Jan05Dec05.dat" GAGE42     IN
GAGE43           INTENSITY 0.25   1      FILE       "C:\Alcosan\LNA\Precipitation\LNA-RainInt-Jan05Dec05.dat" GAGE43     IN
GAGE44           INTENSITY 0.25   1      FILE       "C:\Alcosan\LNA\Precipitation\LNA-RainInt-Jan05Dec05.dat" GAGE44     IN
GAGE45           INTENSITY 0.25   1      FILE       "C:\Alcosan\LNA\Precipitation\LNA-RainInt-Jan05Dec05.dat" GAGE45     IN
GAGE46           INTENSITY 0.25   1      FILE       "C:\Alcosan\LNA\Precipitation\LNA-RainInt-Jan05Dec05.dat" GAGE46     IN
GAGE47           INTENSITY 0.25   1      FILE       "C:\Alcosan\LNA\Precipitation\LNA-RainInt-Jan05Dec05.dat" GAGE47     IN
GAGE48           INTENSITY 0.25   1      FILE       "C:\Alcosan\LNA\Precipitation\LNA-RainInt-Jan05Dec05.dat" GAGE48     IN
GAGE49           INTENSITY 0.25   1      FILE       "C:\Alcosan\LNA\Precipitation\LNA-RainInt-Jan05Dec05.dat" GAGE49     IN
GAGE50           INTENSITY 0.25   1      FILE       "C:\Alcosan\LNA\Precipitation\LNA-RainInt-Jan05Dec05.dat" GAGE50     IN
GAGE51           INTENSITY 0.25   1      FILE       "C:\Alcosan\LNA\Precipitation\LNA-RainInt-Jan05Dec05.dat" GAGE51     IN
GAGE52           INTENSITY 0.25   1      FILE       "C:\Alcosan\LNA\Precipitation\LNA-RainInt-Jan05Dec05.dat" GAGE52     IN
GAGE53           INTENSITY 0.25   1      FILE       "C:\Alcosan\LNA\Precipitation\LNA-RainInt-Jan05Dec05.dat" GAGE53     IN
GAGE54           INTENSITY 0.25   1      FILE       "C:\Alcosan\LNA\Precipitation\LNA-RainInt-Jan05Dec05.dat" GAGE54     IN
GAGE55           INTENSITY 0.25   1      FILE       "C:\Alcosan\LNA\Precipitation\LNA-RainInt-Jan05Dec05.dat" GAGE55     IN
GAGE56           INTENSITY 0.25   1      FILE       "C:\Alcosan\LNA\Precipitation\LNA-RainInt-Jan05Dec05.dat" GAGE56     IN
GAGE57           INTENSITY 0.25   1      FILE       "C:\Alcosan\LNA\Precipitation\LNA-RainInt-Jan05Dec05.dat" GAGE57     IN
GAGE58           INTENSITY 0.25   1      FILE       "C:\Alcosan\LNA\Precipitation\LNA-RainInt-Jan05Dec05.dat" GAGE58     IN
GAGE59           INTENSITY 0.25   1      FILE       "C:\Alcosan\LNA\Precipitation\LNA-RainInt-Jan05Dec05.dat" GAGE59     IN
GAGE60           INTENSITY 0.25   1      FILE       "C:\Alcosan\LNA\Precipitation\LNA-RainInt-Jan05Dec05.dat" GAGE60     IN
GAGE61           INTENSITY 0.25   1      FILE       "C:\Alcosan\LNA\Precipitation\LNA-RainInt-Jan05Dec05.dat" GAGE61     IN

[SUBCATCHMENTS]
;;                                                 Total    Pcnt.             Pcnt.    Curb     Snow
;;Name           Raingage         Outlet           Area     Imperv   Width    Slope    Length   Pack
;;-------------- ---------------- ---------------- -------- -------- -------- -------- -------- --------
Seavey-RoadCIhgh GAGE54           MH.16-01         0.28     35.0     124.0    16.03    0        SNOW-3
Seavey-RoadCImed GAGE54           MH.16-01         0.17     35.0     76.0     2.91     0        SNOW-3
Seavey-RoadCIlow GAGE54           MH.16-01         0.02     90.0     8.0      0.67     0        SNOW-3
Seavey-RoadCIzero GAGE54           MH.16-01         0.02     90.0     8.0      0.24     0        SNOW-3
Seavey-RoadCPhgh GAGE54           MH.16-01         1.57     0.0      684.0    26.79    0        SNOW-3
Seavey-RoadCPmed GAGE54           MH.16-01         0.17     0.0      72.0     2.82     0        SNOW-3
Seavey-RoadCPlow GAGE54           MH.16-01         0.03     0.0      12.0     0.77     0        SNOW-3
CSO-07CIhgh      GAGE14           ML-CSO#7-01      0.19     20.0     56.0     10.57    0        SNOW-3
CSO-07CImed      GAGE14           ML-CSO#7-01      1.19     20.0     346.67   2.92     0        SNOW-3
CSO-07CPhgh      GAGE14           ML-CSO#7-01      0.53     0.0      154.67   10.96    0        SNOW-3
CSO-07CPmed      GAGE14           ML-CSO#7-01      1.14     0.0      330.67   3.16     0        SNOW-3
CSO-07CPlow      GAGE14           ML-CSO#7-01      0.01     0.0      2.67     0.56     0        SNOW-3
CSO-05CIhgh      GAGE12           ML-CSO#5-01      4.09     46.0     1780.0   16.4     0        SNOW-3
CSO-05CImed      GAGE12           ML-CSO#5-01      1.4      40.0     612.0    3.2      0        SNOW-3
CSO-05CIlow      GAGE12           ML-CSO#5-01      0.05     40.0     20.0     0.66     0        SNOW-3
CSO-05CIzero     GAGE12           ML-CSO#5-01      0.65     60.0     284.0    0.02     0        SNOW-3
CSO-05CPhgh      GAGE12           ML-CSO#5-01      6.87     0.0      2992.0   23.03    0        SNOW-3
CSO-05CPmed      GAGE12           ML-CSO#5-01      1.03     0.0      448.0    3.33     0        SNOW-3
CSO-05CPlow      GAGE12           ML-CSO#5-01      0.07     0.0      32.0     0.7      0        SNOW-3
CSO-05CPzero     GAGE12           ML-CSO#5-01      0.83     0.0      360.0    0.01     0        SNOW-3
CSO-04CIhgh      GAGE10           ML-CSO#4-01      10.86    10.0     1720.73  17.33    0        SNOW-3
CSO-04CImed      GAGE10           ML-CSO#4-01      1.34     10.0     212.36   3.42     0        SNOW-3
CSO-04CIlow      GAGE10           ML-CSO#4-01      0.15     10.0     23.27    0.53     0        SNOW-3
CSO-04CIzero     GAGE10           ML-CSO#4-01      0.29     10.0     46.55    0.04     0        SNOW-3
CSO-04CPhgh      GAGE10           ML-CSO#4-01      28.01    0.0      4436.36  25.53    0        SNOW-3
CSO-04CPmed      GAGE10           ML-CSO#4-01      1.32     0.0      209.45   3.62     0        SNOW-3
CSO-04CPlow      GAGE10           ML-CSO#4-01      0.15     0.0      23.27    0.63     0        SNOW-3
CSO-04CPzero     GAGE10           ML-CSO#4-01      0.28     0.0      45.09    0.01     0        SNOW-3
CSO-03CIhgh      GAGE9            ML-CSO#3-01      1.35     59.0     392.0    7.88     0        SNOW-3
CSO-03CImed      GAGE9            ML-CSO#3-01      0.69     59.0     200.0    4.12     0        SNOW-3
CSO-03CIlow      GAGE9            ML-CSO#3-01      0.03     59.0     8.0      0.77     0        SNOW-3
CSO-03CIzero     GAGE9            ML-CSO#3-01      0.08     59.0     24.0     0.03     0        SNOW-3
CSO-03CPhgh      GAGE9            ML-CSO#3-01      1.51     0.0      437.33   7.98     0        SNOW-3
CSO-03CPmed      GAGE9            ML-CSO#3-01      0.64     0.0      186.67   3.75     0        SNOW-3
CSO-03CPlow      GAGE9            ML-CSO#3-01      0.05     0.0      13.33    0.58     0        SNOW-3
CSO-03CPzero     GAGE9            ML-CSO#3-01      0.07     0.0      21.33    0.07     0        SNOW-3
WestView-CemeteryLaneCIhgh GAGE60           WV-CSO#1-01      22.87    40.0     427.029  14.68    0        SNOW-3
WestView-CemeteryLaneCImed GAGE60           WV-CSO#1-01      1.57     40.0     29.3145  3.48     0        SNOW-3
WestView-CemeteryLaneCIlow GAGE60           WV-CSO#1-01      0.18     40.0     3.429    0.67     0        SNOW-3
WestView-CemeteryLaneCIzero GAGE60           WV-CSO#1-01      0.14     40.0     2.571    0.16     0        SNOW-3
WestView-CemeteryLaneCPhgh GAGE60           WV-CSO#1-01      84.09    0.0      1569.771 24.66    0        SNOW-3
WestView-CemeteryLaneCPmed GAGE60           WV-CSO#1-01      3.19     0.0      59.4855  3.56     0        SNOW-3
WestView-CemeteryLaneCPlow GAGE60           WV-CSO#1-01      0.31     0.0      5.829    0.66     0        SNOW-3
WestView-CemeteryLaneCPzero GAGE60           WV-CSO#1-01      0.13     0.0      2.4      0.15     0        SNOW-3
Cresson-AveCIhgh GAGE20           WV-CSO#2-02      88.27    20.0     3845.2   13.48    0        SNOW-3
Cresson-AveCImed GAGE20           WV-CSO#2-02      19.67    20.0     856.8    3.29     0        SNOW-3
Cresson-AveCIlow GAGE20           WV-CSO#2-02      1.63     20.0     71.2     0.65     0        SNOW-3
Cresson-AveCIzero GAGE20           WV-CSO#2-02      9.6      20.0     418.0    0.01     0        SNOW-3
Cresson-AveCPhgh GAGE20           WV-CSO#2-02      261.74   0.0      11401.6  19.85    0        SNOW-3
Cresson-AveCPmed GAGE20           WV-CSO#2-02      17.08    0.0      744.0    3.52     0        SNOW-3
Cresson-AveCPlow GAGE20           WV-CSO#2-02      1.59     0.0      69.2     0.64     0        SNOW-3
Cresson-AveCPzero GAGE20           WV-CSO#2-02      4.31     0.0      187.6    0.03     0        SNOW-3
Perrysville&LaurelGardensCIhgh GAGE49           MH.98-02         5.34     20.0     309.868  13.98    0        SNOW-3
Perrysville&LaurelGardensCImed GAGE49           MH.98-02         1.38     20.0     80.0     3.54     0        SNOW-3
Perrysville&LaurelGardensCIlow GAGE49           MH.98-02         0.17     20.0     9.6      0.71     0        SNOW-3
Perrysville&LaurelGardensCIzero GAGE49           MH.98-02         0.09     20.0     5.332    0.17     0        SNOW-3
Perrysville&LaurelGardensCPhgh GAGE49           MH.98-02         17.95    0.0      1042.668 21.29    0        SNOW-3
Perrysville&LaurelGardensCPmed GAGE49           MH.98-02         1.5      0.0      86.932   3.54     0        SNOW-3
Perrysville&LaurelGardensCPlow GAGE49           MH.98-02         0.12     0.0      6.932    0.57     0        SNOW-3
Perrysville&LaurelGardensCPzero GAGE49           MH.98-02         0.13     0.0      7.468    0.13     0        SNOW-3
MH-12CIhgh       GAGE45           MH.12-02-01      2.72     35.0     473.6    12.21    0        SNOW-3
MH-12CImed       GAGE45           MH.12-02-01      1.73     35.0     300.8    3.31     0        SNOW-3
MH-12CIlow       GAGE45           MH.12-02-01      0.3      90.0     52.8     0.61     0        SNOW-3
MH-12CIzero      GAGE45           MH.12-02-01      0.14     90.0     24.0     0.12     0        SNOW-3
MH-12CPhgh       GAGE45           MH.12-02-01      9.39     0.0      1636.8   35.83    0        SNOW-3
MH-12CPmed       GAGE45           MH.12-02-01      1.84     0.0      320.0    3.32     0        SNOW-3
MH-12CPlow       GAGE45           MH.12-02-01      0.29     0.0      51.2     0.66     0        SNOW-3
MH-12CPzero      GAGE45           MH.12-02-01      0.15     0.0      25.6     0.13     0        SNOW-3
Friday-Road-MonCIhgh GAGE35           MH.07A-01        2.57     25.0     407.09   20.26    0        SNOW-3
Friday-Road-MonCImed GAGE35           MH.07A-01        0.23     25.0     36.43    3.91     0        SNOW-3
Friday-Road-MonCIlow GAGE35           MH.07A-01        0.01     25.0     1.58     0.95     0        SNOW-3
Friday-Road-MonCPhgh GAGE35           MH.07A-01        8.48     0.0      1343.23  29.95    0        SNOW-3
Friday-Road-MonCPmed GAGE35           MH.07A-01        0.34     0.0      53.86    3.91     0        SNOW-3
Friday-Road-MonCPlow GAGE35           MH.07A-01        0.03     0.0      4.75     0.62     0        SNOW-3
Friday-Road-MonCPzero GAGE35           MH.07A-01        0.03     0.0      4.75     0.02     0        SNOW-3
Friday-Road-UnMonCIhgh GAGE35           MH.07A-01        1.79     25.0     283.54   12.5     0        SNOW-3
Friday-Road-UnMonCImed GAGE35           MH.07A-01        0.94     25.0     148.9    3.74     0        SNOW-3
Friday-Road-UnMonCIlow GAGE35           MH.07A-01        0.06     25.0     9.5      0.8      0        SNOW-3
Friday-Road-UnMonCIzero GAGE35           MH.07A-01        0.06     25.0     9.5      0.04     0        SNOW-3
Friday-Road-UnMonCPhgh GAGE35           MH.07A-01        8.35     0.0      1322.64  31.05    0        SNOW-3
Friday-Road-UnMonCPmed GAGE35           MH.07A-01        1.26     0.0      199.58   3.55     0        SNOW-3
Friday-Road-UnMonCPlow GAGE35           MH.07A-01        0.04     0.0      6.34     0.62     0        SNOW-3
Friday-Road-UnMonCPzero GAGE35           MH.07A-01        0.07     0.0      11.09    0.02     0        SNOW-3
CSO-01CIhgh      GAGE8            ML-CSO#1-02      0.8911   95.0     146.0    6.69     0        SNOW-3
CSO-01CImed      GAGE8            ML-CSO#1-02      1.862    95.0     306.0    3.13     0        SNOW-3
CSO-01CIlow      GAGE8            ML-CSO#1-02      0.2261   95.0     38.0     0.57     0        SNOW-3
CSO-01CIzero     GAGE8            ML-CSO#1-02      2.0216   95.0     330.0    0.01     0        SNOW-3
CSO-01CPhgh      GAGE8            ML-CSO#1-02      1.1172   0.0      182.0    12.3     0        SNOW-3
CSO-01CPmed      GAGE8            ML-CSO#1-02      2.0748   0.0      340.0    3.4      0        SNOW-3
CSO-01CPlow      GAGE8            ML-CSO#1-02      0.2261   0.0      38.0     0.64     0        SNOW-3
CSO-01CPzero     GAGE8            ML-CSO#1-02      2.1147   0.0      346.0    0.02     0        SNOW-3
Hawthorne-AveCIhgh GAGE38           MH.77-06-01      4.97     40.0     162.3    17.33    0        SNOW-3
Hawthorne-AveCImed GAGE38           MH.77-06-01      0.01     40.0     0.3      1.22     0        SNOW-3
Hawthorne-AveCPhgh GAGE38           MH.77-06-01      27.36    0.0      894.0    28.09    0        SNOW-3
Hawthorne-AveCPmed GAGE38           MH.77-06-01      0.16     0.0      5.1      4.0      0        SNOW-3
Hawthorne-AveCPlow GAGE38           MH.77-06-01      0.01     0.0      0.3      0.91     0        SNOW-3
ClairmontCIhgh   GAGE18           MH.97-02         2.64     20.0     153.6    13.83    0        SNOW-3
ClairmontCImed   GAGE18           MH.97-02         0.06     20.0     3.732    4.21     0        SNOW-3
ClairmontCPhgh   GAGE18           MH.97-02         13.94    0.0      809.6    25.15    0        SNOW-3
ClairmontCPmed   GAGE18           MH.97-02         0.28     0.0      16.0     4.23     0        SNOW-3
ClairmontCPlow   GAGE18           MH.97-02         0.06     0.0      3.2      0.81     0        SNOW-3
DirectConnection#5CIhgh GAGE27           MH.22-01         2.26     25.0     492.0    16.09    0        SNOW-3
DirectConnection#5CImed GAGE27           MH.22-01         1.26     25.0     274.0    3.12     0        SNOW-3
DirectConnection#5CIlow GAGE27           MH.22-01         0.13     25.0     28.0     0.61     0        SNOW-3
DirectConnection#5CIzero GAGE27           MH.22-01         0.06     25.0     12.0     0.15     0        SNOW-3
DirectConnection#5CPhgh GAGE27           MH.22-01         9.61     0.0      2092.0   38.43    0        SNOW-3
DirectConnection#5CPmed GAGE27           MH.22-01         2.01     0.0      438.0    2.93     0        SNOW-3
DirectConnection#5CPlow GAGE27           MH.22-01         0.06     0.0      12.0     0.79     0        SNOW-3
DirectConnection#5CPzero GAGE27           MH.22-01         0.04     0.0      8.0      0.21     0        SNOW-3
Hawthorne-GrossmanCIhgh GAGE40           MH.19-01         5.63     25.0     490.4    15.64    0        SNOW-3
Hawthorne-GrossmanCImed GAGE40           MH.19-01         0.5      25.0     43.2     3.5      0        SNOW-3
Hawthorne-GrossmanCIlow GAGE40           MH.19-01         0.06     25.0     5.6      0.59     0        SNOW-3
Hawthorne-GrossmanCIzero GAGE40           MH.19-01         0.02     25.0     1.6      0.07     0        SNOW-3
Hawthorne-GrossmanCPhgh GAGE40           MH.19-01         23.12    0.0      2014.4   27.67    0        SNOW-3
Hawthorne-GrossmanCPmed GAGE40           MH.19-01         1.49     0.0      129.6    3.11     0        SNOW-3
Hawthorne-GrossmanCPlow GAGE40           MH.19-01         0.07     0.0      6.4      0.69     0        SNOW-3
Hawthorne-GrossmanCPzero GAGE40           MH.19-01         0.04     0.0      3.2      0.15     0        SNOW-3
CSO-08CIhgh      GAGE15           ML-CSO#8-01      0.11     20.0     48.0     8.48     0        SNOW-3
CSO-08CImed      GAGE15           ML-CSO#8-01      0.19     20.0     84.0     3.06     0        SNOW-3
CSO-08CPhgh      GAGE15           ML-CSO#8-01      0.31     0.0      136.0    8.88     0        SNOW-3
CSO-08CPmed      GAGE15           ML-CSO#8-01      0.28     0.0      120.0    3.04     0        SNOW-3
CSO-08CPlow      GAGE15           ML-CSO#8-01      0.02     0.0      8.0      0.77     0        SNOW-3
Frederick-StreetCIhgh GAGE34           MH.12-01         3.69     46.0     643.2    19.0     0        SNOW-3
Frederick-StreetCImed GAGE34           MH.12-01         0.55     40.0     96.0     3.93     0        SNOW-3
Frederick-StreetCIlow GAGE34           MH.12-01         0.01     40.0     1.6      0.93     0        SNOW-3
Frederick-StreetCIzero GAGE34           MH.12-01         0.01     60.0     1.6      0.19     0        SNOW-3
Frederick-StreetCPhgh GAGE34           MH.12-01         28.74    0.0      5008.0   37.89    0        SNOW-3
Frederick-StreetCPmed GAGE34           MH.12-01         0.39     0.0      67.2     3.74     0        SNOW-3
Frederick-StreetCPlow GAGE34           MH.12-01         0.02     0.0      3.2      0.67     0        SNOW-3
MH-08CIhgh       GAGE44           MH.08-01         0.39     20.0     28.0     15.25    0        SNOW-3
MH-08CImed       GAGE44           MH.08-01         0.96     20.0     70.0     2.81     0        SNOW-3
MH-08CIlow       GAGE44           MH.08-01         0.06     50.0     4.0      0.71     0        SNOW-3
MH-08CIzero      GAGE44           MH.08-01         0.04     50.0     2.67     0.26     0        SNOW-3
MH-08CPhgh       GAGE44           MH.08-01         0.75     0.0      54.67    14.37    0        SNOW-3
MH-08CPmed       GAGE44           MH.08-01         0.91     0.0      66.0     2.64     0        SNOW-3
MH-08CPlow       GAGE44           MH.08-01         0.06     0.0      4.67     0.69     0        SNOW-3
MH-08CPzero      GAGE44           MH.08-01         0.05     0.0      3.33     0.08     0        SNOW-3
Elizabeth-StreetCIhgh GAGE32           MH.04-01         3.08     46.0     670.0    22.49    0        SNOW-3
Elizabeth-StreetCImed GAGE32           MH.04-01         1.02     40.0     222.0    2.88     0        SNOW-3
Elizabeth-StreetCIlow GAGE32           MH.04-01         0.06     40.0     14.0     0.68     0        SNOW-3
Elizabeth-StreetCIzero GAGE32           MH.04-01         0.08     60.0     18.0     0.16     0        SNOW-3
Elizabeth-StreetCPhgh GAGE32           MH.04-01         8.94     0.0      1948.0   31.71    0        SNOW-3
Elizabeth-StreetCPmed GAGE32           MH.04-01         0.82     0.0      178.0    2.71     0        SNOW-3
Elizabeth-StreetCPlow GAGE32           MH.04-01         0.1      0.0      22.0     0.59     0        SNOW-3
Elizabeth-StreetCPzero GAGE32           MH.04-01         0.05     0.0      10.0     0.09     0        SNOW-3
CSO-06CIhgh      GAGE13           ML-CSO#6-01      0.33     20.0     144.0    7.19     0        SNOW-3
CSO-06CImed      GAGE13           ML-CSO#6-01      0.41     20.0     180.0    3.17     0        SNOW-3
CSO-06CIlow      GAGE13           ML-CSO#6-01      0.03     50.0     12.0     0.57     0        SNOW-3
CSO-06CIzero     GAGE13           ML-CSO#6-01      0.22     50.0     96.0     0.05     0        SNOW-3
CSO-06CPhgh      GAGE13           ML-CSO#6-01      0.62     0.0      272.0    12.77    0        SNOW-3
CSO-06CPmed      GAGE13           ML-CSO#6-01      0.53     0.0      232.0    3.19     0        SNOW-3
CSO-06CPlow      GAGE13           ML-CSO#6-01      0.08     0.0      36.0     0.67     0        SNOW-3
CSO-06CPzero     GAGE13           ML-CSO#6-01      0.07     0.0      32.0     0.07     0        SNOW-3
DirectConnection#6CIhgh GAGE29           MH.K-01          4.04     35.0     880.0    13.98    0        SNOW-3
DirectConnection#6CImed GAGE29           MH.K-01          4.57     35.0     996.0    3.06     0        SNOW-3
DirectConnection#6CIlow GAGE29           MH.K-01          0.31     90.0     68.0     0.66     0        SNOW-3
DirectConnection#6CIzero GAGE29           MH.K-01          0.27     90.0     58.0     0.14     0        SNOW-3
DirectConnection#6CPhgh GAGE29           MH.K-01          10.15    0.0      2210.0   22.38    0        SNOW-3
DirectConnection#6CPmed GAGE29           MH.K-01          4.09     0.0      890.0    3.06     0        SNOW-3
DirectConnection#6CPlow GAGE29           MH.K-01          0.25     0.0      54.0     0.64     0        SNOW-3
DirectConnection#6CPzero GAGE29           MH.K-01          0.11     0.0      24.0     0.16     0        SNOW-3
Stanton-AveCIhgh GAGE57           ML-CSO#2-01      6.41     35.0     1396.0   22.61    0        SNOW-3
Stanton-AveCImed GAGE57           ML-CSO#2-01      0.84     35.0     184.0    3.32     0        SNOW-3
Stanton-AveCIlow GAGE57           ML-CSO#2-01      0.03     90.0     6.0      0.84     0        SNOW-3
Stanton-AveCIzero GAGE57           ML-CSO#2-01      0.01     90.0     2.0      0.14     0        SNOW-3
Stanton-AveCPhgh GAGE57           ML-CSO#2-01      12.87    0.0      2802.0   31.43    0        SNOW-3
Stanton-AveCPmed GAGE57           ML-CSO#2-01      0.62     0.0      136.0    3.3      0        SNOW-3
Stanton-AveCPlow GAGE57           ML-CSO#2-01      0.01     0.0      2.0      0.82     0        SNOW-3
CSO-09CIhgh      GAGE16           ML-CSO#9-01      2.7534   95.0     1536.0   14.0     0        SNOW-3
CSO-09CImed      GAGE16           ML-CSO#9-01      1.0452   95.0     584.0    3.26     0        SNOW-3
CSO-09CIlow      GAGE16           ML-CSO#9-01      0.1248   95.0     68.0     0.69     0        SNOW-3
CSO-09CIzero     GAGE16           ML-CSO#9-01      0.4134   95.0     232.0    0.02     0        SNOW-3
CSO-09CPhgh      GAGE16           ML-CSO#9-01      3.8766   0.0      2164.0   18.85    0        SNOW-3
CSO-09CPmed      GAGE16           ML-CSO#9-01      0.7488   0.0      420.0    3.26     0        SNOW-3
CSO-09CPlow      GAGE16           ML-CSO#9-01      0.1092   0.0      60.0     0.61     0        SNOW-3
CSO-09CPzero     GAGE16           ML-CSO#9-01      0.2964   0.0      164.0    0.03     0        SNOW-3
Logan-StreetCIhgh GAGE42           MH.B-01          6.46     35.0     1408.0   17.16    0        SNOW-3
Logan-StreetCImed GAGE42           MH.B-01          1.03     35.0     224.0    3.61     0        SNOW-3
Logan-StreetCIlow GAGE42           MH.B-01          0.05     90.0     10.0     0.58     0        SNOW-3
Logan-StreetCIzero GAGE42           MH.B-01          0.02     90.0     4.0      0.19     0        SNOW-3
Logan-StreetCPhgh GAGE42           MH.B-01          14.57    0.0      3174.0   32.22    0        SNOW-3
Logan-StreetCPmed GAGE42           MH.B-01          0.46     0.0      100.0    3.32     0        SNOW-3
Logan-StreetCPlow GAGE42           MH.B-01          0.06     0.0      12.0     0.64     0        SNOW-3
A-62CIhgh        GAGE1            A-62-00-M1       2.38     60.0     518.0    14.94    0        SNOW-3
A-62CImed        GAGE1            A-62-00-M1       0.28     60.0     62.0     4.0      0        SNOW-3
A-62CPhgh        GAGE1            A-62-00-M1       7.73     0.0      1684.0   58.52    0        SNOW-3
A-62CPmed        GAGE1            A-62-00-M1       0.34     0.0      74.0     3.6      0        SNOW-3
A-62CPlow        GAGE1            A-62-00-M1       0.01     0.0      2.0      0.81     0        SNOW-3
A-62CPzero       GAGE1            A-62-00-M1       0.21     0.0      46.0     0.01     0        SNOW-3
A-63CIhgh        GAGE3            A-63-00-M1       1.64     60.0     358.0    16.6     0        SNOW-3
A-63CPhgh        GAGE3            A-63-00-M1       6.34     0.0      1380.0   54.78    0        SNOW-3