[OPTIONS]
;Option and Files Scenario Set: BASE, Base Simulation Options
FLOW_UNITS	CFS
INFILTRATION	HORTON
FLOW_ROUTING	DYNWAVE
ALLOW_PONDING	YES
DRY_DAYS	5.000000
SKIP_STEADY_STATE 	NO
IGNORE_RAINFALL	NO
IGNORE_SNOWMELT	YES
IGNORE_GROUNDWATER	YES
IGNORE_QUALITY	YES
FORCE_MAIN_EQUATION	H-W
LINK_OFFSETS	DEPTH
MIN_SLOPE	0.000000
START_DATE	08/02/2012
START_TIME	00:00
END_DATE	08/03/2012
END_TIME	00:00
REPORT_START_DATE	08/02/2012
REPORT_START_TIME	00:00
SWEEP_START	01/01
SWEEP_END	12/31
WET_STEP	00:05:00
DRY_STEP	00:05:00
ROUTING_STEP	5
REPORT_STEP	00:05:00
INERTIAL_DAMPING	FULL
VARIABLE_STEP	0.750000
MINIMUM_STEP	0.5
LENGTHENING_STEP	2
MIN_SURFAREA	0.000000
NORMAL_FLOW_LIMITED	BOTH
MAX_TRIALS	4
HEAD_TOLERANCE	0.005000

[FILES]

[RAINGAGES]
; New Raingage
RAINGAGE-1	CUMULATIVE	1.000000	1.000000	TIMESERIES	100yr-24hr		
; New Raingage
RAINGAGE-1001	CUMULATIVE	1.000000	1.000000	TIMESERIES	100yr-24hr		
; New Raingage
RAINGAGE-1003	CUMULATIVE	1.000000	1.000000	TIMESERIES	100yr-24hr		
; New Raingage
RAINGAGE-1005	CUMULATIVE	1.000000	1.000000	TIMESERIES	100yr-24hr		
; New Raingage
RAINGAGE-1007	CUMULATIVE	1.000000	1.000000	TIMESERIES	100yr-24hr		
; New Raingage
RAINGAGE-1009	CUMULATIVE	1.000000	1.000000	TIMESERIES	100yr-24hr		
; New Raingage
RAINGAGE-101	CUMULATIVE	1.000000	1.000000	TIMESERIES	100yr-24hr		
; New Raingage
RAINGAGE-1011	CUMULATIVE	1.000000	1.000000	TIMESERIES	100yr-24hr		
; New Raingage
RAINGAGE-1013	CUMULATIVE	1.000000	1.000000	TIMESERIES	100yr-24hr		
; New Raingage
RAINGAGE-1015	CUMULATIVE	1.000000	1.000000	TIMESERIES	100yr-24hr		
; New Raingage
RAINGAGE-1017	CUMULATIVE	1.000000	1.000000	TIMESERIES	100yr-24hr		
; New Raingage
RAINGAGE-1019	CUMULATIVE	1.000000	1.000000	TIMESERIES	100yr-24hr		
; New Raingage
RAINGAGE-1021	CUMULATIVE	1.000000	1.000000	TIMESERIES	100yr-24hr		
; New Raingage
RAINGAGE-1023	CUMULATIVE	1.000000	1.000000	TIMESERIES	100yr-24hr		
; New Raingage
RAINGAGE-1025	CUMULATIVE	1.000000	1.000000	TIMESERIES	100yr-24hr		
; New Raingage
RAINGAGE-1027	CUMULATIVE	1.000000	1.000000	TIMESERIES	100yr-24hr		
; New Raingage
RAINGAGE-1029	CUMULATIVE	1.000000	1.000000	TIMESERIES	100yr-24hr		
; New Raingage
RAINGAGE-103	CUMULATIVE	1.000000	1.000000	TIMESERIES	100yr-24hr		
; New Raingage
RAINGAGE-1031	CUMULATIVE	1.000000	1.000000	TIMESERIES	100yr-24hr		
; New Raingage
RAINGAGE-1033	CUMULATIVE	1.000000	1.000000	TIMESERIES	100yr-24hr		
; New Raingage
RAINGAGE-1035	CUMULATIVE	1.000000	1.000000	TIMESERIES	100yr-24hr		
; New Raingage
RAINGAGE-1037	CUMULATIVE	1.000000	1.000000	TIMESERIES	100yr-24hr		
; New Raingage
RAINGAGE-1039	CUMULATIVE	1.000000	1.000000	TIMESERIES	100yr-24hr		
; New Raingage
RAINGAGE-1041	CUMULATIVE	1.000000	1.000000	TIMESERIES	100yr-24hr		
; New Raingage
RAINGAGE-1043	CUMULATIVE	1.000000	1.000000	TIMESERIES	100yr-24hr		
; New Raingage
RAINGAGE-1045	CUMULATIVE	1.000000	1.000000	TIMESERIES	100yr-24hr		
; New Raingage
RAINGAGE-1047	CUMULATIVE	1.000000	1.000000	TIMESERIES	100yr-24hr		
; New Raingage
RAINGAGE-1049	CUMULATIVE	1.000000	1.000000	TIMESERIES	100yr-24hr		
; New Raingage
RAINGAGE-105	CUMULATIVE	1.000000	1.000000	TIMESERIES	100yr-24hr		
; New Raingage
RAINGAGE-1051	CUMULATIVE	1.000000	1.000000	TIMESERIES	100yr-24hr		
; New Raingage
RAINGAGE-1053	CUMULATIVE	1.000000	1.000000	TIMESERIES	100yr-24hr		
; New Raingage
RAINGAGE-1055	CUMULATIVE	1.000000	1.000000	TIMESERIES	100yr-24hr		
; New Raingage
RAINGAGE-1057	CUMULATIVE	1.000000	1.000000	TIMESERIES	100yr-24hr		
; New Raingage
RAINGAGE-1059	CUMULATIVE	1.000000	1.000000	TIMESERIES	100yr-24hr		
; New Raingage
RAINGAGE-1061	CUMULATIVE	1.000000	1.000000	TIMESERIES	100yr-24hr		
; New Raingage
RAINGAGE-1063	CUMULATIVE	1.000000	1.000000	TIMESERIES	100yr-24hr		
; New Raingage
RAINGAGE-1065	CUMULATIVE	1.000000	1.000000	TIMESERIES	100yr-24hr		
; New Raingage
RAINGAGE-1067	CUMULATIVE	1.000000	1.000000	TIMESERIES	100yr-24hr		
; New Raingage
RAINGAGE-1069	CUMULATIVE	1.000000	1.000000	TIMESERIES	100yr-24hr		
; New Raingage
RAINGAGE-107	CUMULATIVE	1.000000	1.000000	TIMESERIES	100yr-24hr		
; New Raingage
RAINGAGE-1071	CUMULATIVE	1.000000	1.000000	TIMESERIES	100yr-24hr		
; New Raingage
RAINGAGE-1073	CUMULATIVE	1.000000	1.000000	TIMESERIES	100yr-24hr		
; New Raingage
RAINGAGE-1075	CUMULATIVE	1.000000	1.000000	TIMESERIES	100yr-24hr		
; New Raingage
RAINGAGE-1077	CUMULATIVE	1.000000	1.000000	TIMESERIES	100yr-24hr		
; New Raingage
RAINGAGE-1079	CUMULATIVE	1.000000	1.000000	TIMESERIES	100yr-24hr		
; New Raingage
RAINGAGE-1081	CUMULATIVE	1.000000	1.000000	TIMESERIES	100yr-24hr		
; New Raingage
RAINGAGE-1083	CUMULATIVE	1.000000	1.000000	TIMESERIES	100yr-24hr		
; New Raingage
RAINGAGE-1085	CUMULATIVE	1.000000	1.000000	TIMESERIES	100yr-24hr		
; New Raingage
RAINGAGE-1087	CUMULATIVE	1.000000	1.000000	TIMESERIES	100yr-24hr		
; New Raingage
RAINGAGE-1089	CUMULATIVE	1.000000	1.000000	TIMESERIES	100yr-24hr		
; New Raingage
RAINGAGE-109	CUMULATIVE	1.000000	1.000000	TIMESERIES	100yr-24hr		
; New Raingage
RAINGAGE-1091	CUMULATIVE	1.000000	1.000000	TIMESERIES	100yr-24hr		
; New Raingage
RAINGAGE-1093	CUMULATIVE	1.000000	1.000000	TIMESERIES	100yr-24hr		
; New Raingage
RAINGAGE-1095	CUMULATIVE	1.000000	1.000000	TIMESERIES	100yr-24hr		
; New Raingage
RAINGAGE-1097	CUMULATIVE	1.000000	1.000000	TIMESERIES	100yr-24hr		
; New Raingage
RAINGAGE-1099	CUMULATIVE	1.000000	1.000000	TIMESERIES	100yr-24hr		
; New Raingage
RAINGAGE-11	CUMULATIVE	1.000000	1.000000	TIMESERIES	100yr-24hr		
; New Raingage
RAINGAGE-1101	CUMULATIVE	1.000000	1.000000	TIMESERIES	100yr-24hr		
; New Raingage
RAINGAGE-1103	CUMULATIVE	1.000000	1.000000	TIMESERIES	100yr-24hr		
; New Raingage
RAINGAGE-1105	CUMULATIVE	1.000000	1.000000	TIMESERIES	100yr-24hr		
; New Raingage
RAINGAGE-1107	CUMULATIVE	1.000000	1.000000	TIMESERIES	100yr-24hr		
; New Raingage
RAINGAGE-1109	CUMULATIVE	1.000000	1.000000	TIMESERIES	100yr-24hr		
; New Raingage
RAINGAGE-111	CUMULATIVE	1.000000	1.000000	TIMESERIES	100yr-24hr		
; New Raingage
RAINGAGE-1111	CUMULATIVE	1.000000	1.000000	TIMESERIES	100yr-24hr		
; New Raingage
RAINGAGE-1113	CUMULATIVE	1.000000	1.000000	TIMESERIES	100yr-24hr		
; New Raingage
RAINGAGE-1115	CUMULATIVE	1.000000	1.000000	TIMESERIES	100yr-24hr		
; New Raingage
RAINGAGE-1117	CUMULATIVE	1.000000	1.000000	TIMESERIES	100yr-24hr		
; New Raingage
RAINGAGE-1119	CUMULATIVE	1.000000	1.000000	TIMESERIES	100yr-24hr		
; New Raingage
RAINGAGE-1121	CUMULATIVE	1.000000	1.000000	TIMESERIES	100yr-24hr		
; New Raingage
RAINGAGE-1123	CUMULATIVE	1.000000	1.000000	TIMESERIES	100yr-24hr		
; New Raingage
RAINGAGE-1125	CUMULATIVE	1.000000	1.000000	TIMESERIES	100yr-24hr		
; New Raingage
RAINGAGE-1127	CUMULATIVE	1.000000	1.000000	TIMESERIES	100yr-24hr		
; New Raingage
RAINGAGE-1129	CUMULATIVE	1.000000	1.000000	TIMESERIES	100yr-24hr		
; New Raingage
RAINGAGE-113	CUMULATIVE	1.000000	1.000000	TIMESERIES	100yr-24hr		
; New Raingage
RAINGAGE-1131	CUMULATIVE	1.000000	1.000000	TIMESERIES	100yr-24hr		
; New Raingage
RAINGAGE-1133	CUMULATIVE	1.000000	1.000000	TIMESERIES	100yr-24hr		
; New Raingage
RAINGAGE-1135	CUMULATIVE	1.000000	1.000000	TIMESERIES	100yr-24hr		
; New Raingage
RAINGAGE-1137	CUMULATIVE	1.000000	1.000000	TIMESERIES	100yr-24hr		
; New Raingage
RAINGAGE-1139	CUMULATIVE	1.000000	1.000000	TIMESERIES	100yr-24hr		
; New Raingage
RAINGAGE-1141	CUMULATIVE	1.000000	1.000000	TIMESERIES	100yr-24hr		
; New Raingage
RAINGAGE-1143	CUMULATIVE	1.000000	1.000000	TIMESERIES	100yr-24hr		
; New Raingage
RAINGAGE-1145	CUMULATIVE	1.000000	1.000000	TIMESERIES	100yr-24hr		
; New Raingage
RAINGAGE-1147	CUMULATIVE	1.000000	1.000000	TIMESERIES	100yr-24hr		
; New Raingage
RAINGAGE-1149	CUMULATIVE	1.000000	1.000000	TIMESERIES	100yr-24hr		
; New Raingage
RAINGAGE-115	CUMULATIVE	1.000000	1.000000	TIMESERIES	100yr-24hr		
; New Raingage
RAINGAGE-1151	CUMULATIVE	1.000000	1.000000	TIMESERIES	100yr-24hr		
; New Raingage
RAINGAGE-1153	CUMULATIVE	1.000000	1.000000	TIMESERIES	100yr-24hr		
; New Raingage
RAINGAGE-1155	CUMULATIVE	1.000000	1.000000	TIMESERIES	100yr-24hr		
; New Raingage
RAINGAGE-1157	CUMULATIVE	1.000000	1.000000	TIMESERIES	100yr-24hr		
; New Raingage
RAINGAGE-1159	CUMULATIVE	1.000000	1.000000	TIMESERIES	100yr-24hr		
; New Raingage
RAINGAGE-1161	CUMULATIVE	1.000000	1.000000	TIMESERIES	100yr-24hr		
; New Raingage
RAINGAGE-1163	CUMULATIVE	1.000000	1.000000	TIMESERIES	100yr-24hr		
; New Raingage
RAINGAGE-1165	CUMULATIVE	1.000000	1.000000	TIMESERIES	100yr-24hr		
; New Raingage
RAINGAGE-1167	CUMULATIVE	1.000000	1.000000	TIMESERIES	100yr-24hr		
; New Raingage
RAINGAGE-1169	CUMULATIVE	1.000000	1.000000	TIMESERIES	100yr-24hr		
; New Raingage
RAINGAGE-117	CUMULATIVE	1.000000	1.000000	TIMESERIES	100yr-24hr		
; New Raingage
RAINGAGE-1171	CUMULATIVE	1.000000	1.000000	TIMESERIES	100yr-24hr		
; New Raingage
RAINGAGE-1173	CUMULATIVE	1.000000	1.000000	TIMESERIES	100yr-24hr		
; New Raingage
RAINGAGE-1175	CUMULATIVE	1.000000	1.000000	TIMESERIES	100yr-24hr		
; New Raingage
RAINGAGE-1177	CUMULATIVE	1.000000	1.000000	TIMESERIES	100yr-24hr		
; New Raingage
RAINGAGE-1179	CUMULATIVE	1.000000	1.000000	TIMESERIES	100yr-24hr		
; New Raingage
RAINGAGE-1181	CUMULATIVE	1.000000	1.000000	TIMESERIES	100yr-24hr		
; New Raingage
RAINGAGE-1183	CUMULATIVE	1.000000	1.000000	TIMESERIES	100yr-24hr		
; New Raingage
RAINGAGE-1185	CUMULATIVE	1.000000	1.000000	TIMESERIES	100yr-24hr		
; New Raingage
RAINGAGE-1187	CUMULATIVE	1.000000	1.000000	TIMESERIES	100yr-24hr		
; New Raingage
RAINGAGE-1189	CUMULATIVE	1.000000	1.000000	TIMESERIES	100yr-24hr		
; New Raingage
RAINGAGE-119	CUMULATIVE	1.000000	1.000000	TIMESERIES	100yr-24hr		
; New Raingage
RAINGAGE-1191	CUMULATIVE	1.000000	1.000000	TIMESERIES	100yr-24hr		
; New Raingage
RAINGAGE-1193	CUMULATIVE	1.000000	1.000000	TIMESERIES	100yr-24hr		
; New Raingage
RAINGAGE-1195	CUMULATIVE	1.000000	1.000000	TIMESERIES	100yr-24hr		
; New Raingage
RAINGAGE-1197	CUMULATIVE	1.000000	1.000000	TIMESERIES	100yr-24hr		
; New Raingage
RAINGAGE-1199	CUMULATIVE	1.000000	1.000000	TIMESERIES	100yr-24hr		
; New Raingage
RAINGAGE-1201	CUMULATIVE	1.000000	1.000000	TIMESERIES	100yr-24hr		
; New Raingage
RAINGAGE-1203	CUMULATIVE	1.000000	1.000000	TIMESERIES	100yr-24hr		
; New Raingage
RAINGAGE-1205	CUMULATIVE	1.000000	1.000000	TIMESERIES	100yr-24hr		
; New Raingage
RAINGAGE-1207	CUMULATIVE	1.000000	1.000000	TIMESERIES	100yr-24hr		
; New Raingage
RAINGAGE-1209	CUMULATIVE	1.000000	1.000000	TIMESERIES	100yr-24hr		
; New Raingage
RAINGAGE-121	CUMULATIVE	1.000000	1.000000	TIMESERIES	100yr-24hr		
; New Raingage
RAINGAGE-1211	CUMULATIVE	1.000000	1.000000	TIMESERIES	100yr-24hr		
; New Raingage
RAINGAGE-1213	CUMULATIVE	1.000000	1.000000	TIMESERIES	100yr-24hr		
; New Raingage
RAINGAGE-1215	CUMULATIVE	1.000000	1.000000	TIMESERIES	100yr-24hr		
; New Raingage
RAINGAGE-1217	CUMULATIVE	1.000000	1.000000	TIMESERIES	100yr-24hr		
; New Raingage
RAINGAGE-1219	CUMULATIVE	1.000000	1.000000	TIMESERIES	100yr-24hr		
; New Raingage
RAINGAGE-1221	CUMULATIVE	1.000000	1.000000	TIMESERIES	100yr-24hr		
; New Raingage
RAINGAGE-1223	CUMULATIVE	1.000000	1.000000	TIMESERIES	100yr-24hr		
; New Raingage
RAINGAGE-1225	CUMULATIVE	1.000000	1.000000	TIMESERIES	100yr-24hr		
; New Raingage
RAINGAGE-1227	CUMULATIVE	1.000000	1.000000	TIMESERIES	100yr-24hr		
; New Raingage
RAINGAGE-1229	CUMULATIVE	1.000000	1.000000	TIMESERIES	100yr-24hr		
; New Raingage
RAINGAGE-123	CUMULATIVE	1.000000	1.000000	TIMESERIES	100yr-24hr		
; New Raingage
RAINGAGE-1231	CUMULATIVE	1.000000	1.000000	TIMESERIES	100yr-24hr		
; New Raingage
RAINGAGE-1233	CUMULATIVE	1.000000	1.000000	TIMESERIES	100yr-24hr		
; New Raingage
RAINGAGE-1235	CUMULATIVE	1.000000	1.000000	TIMESERIES	100yr-24hr		
; New Raingage
RAINGAGE-1237	CUMULATIVE	1.000000	1.000000	TIMESERIES	100yr-24hr		
; New Raingage
RAINGAGE-1239	CUMULATIVE	1.000000	1.000000	TIMESERIES	100yr-24hr		
; New Raingage
RAINGAGE-1241	CUMULATIVE	1.000000	1.000000	TIMESERIES	100yr-24hr		
; New Raingage
RAINGAGE-1243	CUMULATIVE	1.000000	1.000000	TIMESERIES	100yr-24hr		
; New Raingage
RAINGAGE-1245	CUMULATIVE	1.000000	1.000000	TIMESERIES	100yr-24hr		
; New Raingage
RAINGAGE-1247	CUMULATIVE	1.000000	1.000000	TIMESERIES	100yr-24hr		
; New Raingage
RAINGAGE-1249	CUMULATIVE	1.000000	1.000000	TIMESERIES	100yr-24hr		
; New Raingage
RAINGAGE-125	CUMULATIVE	1.000000	1.000000	TIMESERIES	100yr-24hr		
; New Raingage
RAINGAGE-1251	CUMULATIVE	1.000000	1.000000	TIMESERIES	100yr-24hr		
; New Raingage
RAINGAGE-1253	CUMULATIVE	1.000000	1.000000	TIMESERIES	100yr-24hr		
; New Raingage
RAINGAGE-1255	CUMULATIVE	1.000000	1.000000	TIMESERIES	100yr-24hr		
; New Raingage
RAINGAGE-1257	CUMULATIVE	1.000000	1.000000	TIMESERIES	100yr-24hr		
; New Raingage
RAINGAGE-1259	CUMULATIVE	1.000000	1.000000	TIMESERIES	100yr-24hr		
; New Raingage
RAINGAGE-1261	CUMULATIVE	1.000000	1.000000	TIMESERIES	100yr-24hr		
; New Raingage
RAINGAGE-1263	CUMULATIVE	1.000000	1.000000	TIMESERIES	100yr-24hr		
; New Raingage
RAINGAGE-1265	CUMULATIVE	1.000000	1.000000	TIMESERIES	100yr-24hr		
; New Raingage
RAINGAGE-1267	CUMULATIVE	1.000000	1.000000	TIMESERIES	100yr-24hr		
; New Raingage
RAINGAGE-1269	CUMULATIVE	1.000000	1.000000	TIMESERIES	100yr-24hr		
; New Raingage
RAINGAGE-127	CUMULATIVE	1.000000	1.000000	TIMESERIES	100yr-24hr		
; New Raingage
RAINGAGE-1271	CUMULATIVE	1.000000	1.000000	TIMESERIES	100yr-24hr		
; New Raingage
RAINGAGE-1273	CUMULATIVE	1.000000	1.000000	TIMESERIES	100yr-24hr		
; New Raingage
RAINGAGE-1275	CUMULATIVE	1.000000	1.000000	TIMESERIES	100yr-24hr		
; New Raingage
RAINGAGE-1277	CUMULATIVE	1.000000	1.000000	TIMESERIES	100yr-24hr		
; New Raingage
RAINGAGE-1279	CUMULATIVE	1.000000	1.000000	TIMESERIES	100yr-24hr		
; New Raingage
RAINGAGE-1281	CUMULATIVE	1.000000	1.000000	TIMESERIES	100yr-24hr		
; New Raingage
RAINGAGE-1283	CUMULATIVE	1.000000	1.000000	TIMESERIES	100yr-24hr		
; New Raingage
RAINGAGE-1285	CUMULATIVE	1.000000	1.000000	TIMESERIES	100yr-24hr		
; New Raingage
RAINGAGE-1287	CUMULATIVE	1.000000	1.000000	TIMESERIES	100yr-24hr		
; New Raingage
RAINGAGE-1289	CUMULATIVE	1.000000	1.000000	TIMESERIES	100yr-24hr		
; New Raingage
RAINGAGE-129	CUMULATIVE	1.000000	1.000000	TIMESERIES	100yr-24hr		
; New Raingage
RAINGAGE-1291	CUMULATIVE	1.000000	1.000000	TIMESERIES	100yr-24hr		
; New Raingage
RAINGAGE-1293	CUMULATIVE	1.000000	1.000000	TIMESERIES	100yr-24hr		
; New Raingage
RAINGAGE-1295	CUMULATIVE	1.000000	1.000000	TIMESERIES	100yr-24hr		
; New Raingage
RAINGAGE-1297	CUMULATIVE	1.000000	1.000000	TIMESERIES	100yr-24hr		
; New Raingage
RAINGAGE-1299	CUMULATIVE	1.000000	1.000000	TIMESERIES	100yr-24hr		
; New Raingage
RAINGAGE-13	CUMULATIVE	1.000000	1.000000	TIMESERIES	100yr-24hr		
; New Raingage
RAINGAGE-1301	CUMULATIVE	1.000000	1.000000	TIMESERIES	100yr-24hr		
; New Raingage
RAINGAGE-1303	CUMULATIVE	1.000000	1.000000	TIMESERIES	100yr-24hr		
; New Raingage
RAINGAGE-1305	CUMULATIVE	1.000000	1.000000	TIMESERIES	100yr-24hr		
; New Raingage
RAINGAGE-1307	CUMULATIVE	1.000000	1.000000	TIMESERIES	100yr-24hr		
; New Raingage
RAINGAGE-1309	CUMULATIVE	1.000000	1.000000	TIMESERIES	100yr-24hr		
; New Raingage
RAINGAGE-131	CUMULATIVE	1.000000	1.000000	TIMESERIES	100yr-24hr		
; New Raingage
RAINGAGE-1311	CUMULATIVE	1.000000	1.000000	TIMESERIES	100yr-24hr		
; New Raingage
RAINGAGE-1313	CUMULATIVE	1.000000	1.000000	TIMESERIES	100yr-24hr		
; New Raingage
RAINGAGE-1315	CUMULATIVE	1.000000	1.000000	TIMESERIES	100yr-24hr		
; New Raingage
RAINGAGE-1317	CUMULATIVE	1.000000	1.000000	TIMESERIES	100yr-24hr		
; New Raingage
RAINGAGE-1319	CUMULATIVE	1.000000	1.000000	TIMESERIES	100yr-24hr		
; New Raingage
RAINGAGE-1321	CUMULATIVE	1.000000	1.000000	TIMESERIES	100yr-24hr		
; New Raingage
RAINGAGE-1323	CUMULATIVE	1.000000	1.000000	TIMESERIES	100yr-24hr		
; New Raingage
RAINGAGE-1325	CUMULATIVE	1.000000	1.000000	TIMESERIES	100yr-24hr		
; New Raingage
RAINGAGE-1327	CUMULATIVE	1.000000	1.000000	TIMESERIES	100yr-24hr		
; New Raingage
RAINGAGE-1329	CUMULATIVE	1.000000	1.000000	TIMESERIES	100yr-24hr		
; New Raingage
RAINGAGE-133	CUMULATIVE	1.000000	1.000000	TIMESERIES	100yr-24hr		
; New Raingage
RAINGAGE-1331	CUMULATIVE	1.000000	1.000000	TIMESERIES	100yr-24hr		
; New Raingage
RAINGAGE-1333	CUMULATIVE	1.000000	1.000000	TIMESERIES	100yr-24hr		
; New Raingage
RAINGAGE-1335	CUMULATIVE	1.000000	1.000000	TIMESERIES	100yr-24hr		
; New Raingage
RAINGAGE-1337	CUMULATIVE	1.000000	1.000000	TIMESERIES	100yr-24hr		
; New Raingage
RAINGAGE-1339	CUMULATIVE	1.000000	1.000000	TIMESERIES	100yr-24hr		
; New Raingage
RAINGAGE-1341	CUMULATIVE	1.000000	1.000000	TIMESERIES	100yr-24hr		
; New Raingage
RAINGAGE-1343	CUMULATIVE	1.000000	1.000000	TIMESERIES	100yr-24hr		
; New Raingage
RAINGAGE-1345	CUMULATIVE	1.000000	1.000000	TIMESERIES	100yr-24hr		
; New Raingage
RAINGAGE-1347	CUMULATIVE	1.000000	1.000000	TIMESERIES	100yr-24hr		
; New Raingage
RAINGAGE-1349	CUMULATIVE	1.000000	1.000000	TIMESERIES	100yr-24hr		
; New Raingage
RAINGAGE-135	CUMULATIVE	1.000000	1.000000	TIMESERIES	100yr-24hr		
; New Raingage
RAINGAGE-1351	CUMULATIVE	1.000000	1.000000	TIMESERIES	100yr-24hr		
; New Raingage
RAINGAGE-1353	CUMULATIVE	1.000000	1.000000	TIMESERIES	100yr-24hr		
; New Raingage
RAINGAGE-1355	CUMULATIVE	1.000000	1.000000	TIMESERIES	100yr-24hr		
; New Raingage
RAINGAGE-1357	CUMULATIVE	1.000000	1.000000	TIMESERIES	100yr-24hr		
; New Raingage
RAINGAGE-1359	CUMULATIVE	1.000000	1.000000	TIMESERIES	100yr-24hr		
; New Raingage
RAINGAGE-1361	CUMULATIVE	1.000000	1.000000	TIMESERIES	100yr-24hr		
; New Raingage
RAINGAGE-1363	CUMULATIVE	1.000000	1.000000	TIMESERIES	100yr-24hr		
; New Raingage
RAINGAGE-1365	CUMULATIVE	1.000000	1.000000	TIMESERIES	100yr-24hr		
; New Raingage
RAINGAGE-1367	CUMULATIVE	1.000000	1.000000	TIMESERIES	100yr-24hr		
; New Raingage
RAINGAGE-1369	CUMULATIVE	1.000000	1.000000	TIMESERIES	100yr-24hr		
; New Raingage
RAINGAGE-137	CUMULATIVE	1.000000	1.000000	TIMESERIES	100yr-24hr		
; New Raingage
RAINGAGE-1371	CUMULATIVE	1.000000	1.000000	TIMESERIES	100yr-24hr		
; New Raingage
RAINGAGE-1373	CUMULATIVE	1.000000	1.000000	TIMESERIES	100yr-24hr		
; New Raingage
RAINGAGE-1375	CUMULATIVE	1.000000	1.000000	TIMESERIES	100yr-24hr		
; New Raingage
RAINGAGE-1377	CUMULATIVE	1.000000	1.000000	TIMESERIES	100yr-24hr		
; New Raingage
RAINGAGE-1379	CUMULATIVE	1.000000	1.000000	TIMESERIES	100yr-24hr		
; New Raingage
RAINGAGE-1381	CUMULATIVE	1.000000	1.000000	TIMESERIES	100yr-24hr		
; New Raingage
RAINGAGE-1383	CUMULATIVE	1.000000	1.000000	TIMESERIES	100yr-24hr		
; New Raingage
RAINGAGE-1385	CUMULATIVE	1.000000	1.000000	TIMESERIES	100yr-24hr		
; New Raingage
RAINGAGE-1387	CUMULATIVE	1.000000	1.000000	TIMESERIES	100yr-24hr		
; New Raingage
RAINGAGE-1389	CUMULATIVE	1.000000	1.000000	TIMESERIES	100yr-24hr		
; New Raingage
RAINGAGE-139	CUMULATIVE	1.000000	1.000000	TIMESERIES	100yr-24hr		
; New Raingage
RAINGAGE-1391	CUMULATIVE	1.000000	1.000000	TIMESERIES	100yr-24hr		
; New Raingage
RAINGAGE-1393	CUMULATIVE	1.000000	1.000000	TIMESERIES	100yr-24hr		
; New Raingage
RAINGAGE-1395	CUMULATIVE	1.000000	1.000000	TIMESERIES	100yr-24hr		
; New Raingage
RAINGAGE-1397	CUMULATIVE	1.000000	1.000000	TIMESERIES	100yr-24hr		
; New Raingage
RAINGAGE-1399	CUMULATIVE	1.000000	1.000000	TIMESERIES	100yr-24hr		
; New Raingage
RAINGAGE-1401	CUMULATIVE	1.000000	1.000000	TIMESERIES	100yr-24hr		
; New Raingage
RAINGAGE-1403	CUMULATIVE	1.000000	1.000000	TIMESERIES	100yr-24hr		
; New Raingage
RAINGAGE-1405	CUMULATIVE	1.000000	1.000000	TIMESERIES	100yr-24hr		
; New Raingage
RAINGAGE-1407	CUMULATIVE	1.000000	1.000000	TIMESERIES	100yr-24hr		
; New Raingage
RAINGAGE-1409	CUMULATIVE	1.000000	1.000000	TIMESERIES	100yr-24hr		
; New Raingage
RAINGAGE-141	CUMULATIVE	1.000000	1.000000	TIMESERIES	100yr-24hr		
; New Raingage
RAINGAGE-1411	CUMULATIVE	1.000000	1.000000	TIMESERIES	100yr-24hr		
; New Raingage
RAINGAGE-1413	CUMULATIVE	1.000000	1.000000	TIMESERIES	100yr-24hr		
; New Raingage
RAINGAGE-1415	CUMULATIVE	1.000000	1.000000	TIMESERIES	100yr-24hr		
; New Raingage
RAINGAGE-1417	CUMULATIVE	1.000000	1.000000	TIMESERIES	100yr-24hr		
; New Raingage
RAINGAGE-1419	CUMULATIVE	1.000000	1.000000	TIMESERIES	100yr-24hr		
; New Raingage
RAINGAGE-1421	CUMULATIVE	1.000000	1.000000	TIMESERIES	100yr-24hr		
; New Raingage
RAINGAGE-1423	CUMULATIVE	1.000000	1.000000	TIMESERIES	100yr-24hr		
; New Raingage
RAINGAGE-1425	CUMULATIVE	1.000000	1.000000	TIMESERIES	100yr-24hr		
; New Raingage
RAINGAGE-1427	CUMULATIVE	1.000000	1.000000	TIMESERIES	100yr-24hr		
; New Raingage
RAINGAGE-1429	CUMULATIVE	1.000000	1.000000	TIMESERIES	100yr-24hr		
; New Raingage
RAINGAGE-143	CUMULATIVE	1.000000	1.000000	TIMESERIES	100yr-24hr		
; New Raingage
RAINGAGE-1431	CUMULATIVE	1.000000	1.000000	TIMESERIES	100yr-24hr		
; New Raingage
RAINGAGE-1433	CUMULATIVE	1.000000	1.000000	TIMESERIES	100yr-24hr		
; New Raingage
RAINGAGE-1435	CUMULATIVE	1.000000	1.000000	TIMESERIES	100yr-24hr		
; New Raingage
RAINGAGE-1437	CUMULATIVE	1.000000	1.000000	TIMESERIES	100yr-24hr		
; New Raingage
RAINGAGE-1439	CUMULATIVE	1.000000	1.000000	TIMESERIES	100yr-24hr		
; New Raingage
RAINGAGE-1441	CUMULATIVE	1.000000	1.000000	TIMESERIES	100yr-24hr		
; New Raingage
RAINGAGE-1443	CUMULATIVE	1.000000	1.000000	TIMESERIES	100yr-24hr		
; New Raingage
RAINGAGE-1445	CUMULATIVE	1.000000	1.000000	TIMESERIES	100yr-24hr		
; New Raingage
RAINGAGE-1447	CUMULATIVE	1.000000	1.000000	TIMESERIES	100yr-24hr		
; New Raingage
RAINGAGE-1449	CUMULATIVE	1.000000	1.000000	TIMESERIES	100yr-24hr		
; New Raingage
RAINGAGE-145	CUMULATIVE	1.000000	1.000000	TIMESERIES	100yr-24hr		
; New Raingage
RAINGAGE-1451	CUMULATIVE	1.000000	1.000000	TIMESERIES	100yr-24hr		
; New Raingage
RAINGAGE-1453	CUMULATIVE	1.000000	1.000000	TIMESERIES	100yr-24hr		
; New Raingage
RAINGAGE-1455	CUMULATIVE	1.000000	1.000000	TIMESERIES	100yr-24hr		
; New Raingage
RAINGAGE-1457	CUMULATIVE	1.000000	1.000000	TIMESERIES	100yr-24hr		
; New Raingage
RAINGAGE-1459	CUMULATIVE	1.000000	1.000000	TIMESERIES	100yr-24hr		
; New Raingage
RAINGAGE-1461	CUMULATIVE	1.000000	1.000000	TIMESERIES	100yr-24hr		
; New Raingage
RAINGAGE-1463	CUMULATIVE	1.000000	1.000000	TIMESERIES	100yr-24hr		
; New Raingage
RAINGAGE-1465	CUMULATIVE	1.000000	1.000000	TIMESERIES	100yr-24hr		
; New Raingage
RAINGAGE-1467	CUMULATIVE	1.000000	1.000000	TIMESERIES	100yr-24hr		
; New Raingage
RAINGAGE-1469	CUMULATIVE	1.000000	1.000000	TIMESERIES	100yr-24hr		
; New Raingage
RAINGAGE-147	CUMULATIVE	1.000000	1.000000	TIMESERIES	100yr-24hr		
; New Raingage
RAINGAGE-1471	CUMULATIVE	1.000000	1.000000	TIMESERIES	100yr-24hr		
; New Raingage
RAINGAGE-1473	CUMULATIVE	1.000000	1.000000	TIMESERIES	100yr-24hr		
; New Raingage
RAINGAGE-1475	CUMULATIVE	1.000000	1.000000	TIMESERIES	100yr-24hr		
; New Raingage
RAINGAGE-1477	CUMULATIVE	1.000000	1.000000	TIMESERIES	100yr-24hr		
; New Raingage
RAINGAGE-1479	CUMULATIVE	1.000000	1.000000	TIMESERIES	100yr-24hr		
; New Raingage
RAINGAGE-1481	CUMULATIVE	1.000000	1.000000	TIMESERIES	100yr-24hr		
; New Raingage
RAINGAGE-1483	CUMULATIVE	1.000000	1.000000	TIMESERIES	100yr-24hr		
; New Raingage
RAINGAGE-1485	CUMULATIVE	1.000000	1.000000	TIMESERIES	100yr-24hr		
; New Raingage
RAINGAGE-1487	CUMULATIVE	1.000000	1.000000	TIMESERIES	100yr-24hr		
; New Raingage
RAINGAGE-1489	CUMULATIVE	1.000000	1.000000	TIMESERIES	100yr-24hr		
; New Raingage
RAINGAGE-149	CUMULATIVE	1.000000	1.000000	TIMESERIES	100yr-24hr		
; New Raingage
RAINGAGE-1491	CUMULATIVE	1.000000	1.000000	TIMESERIES	100yr-24hr		
; New Raingage
RAINGAGE-1493	CUMULATIVE	1.000000	1.000000	TIMESERIES	100yr-24hr		
; New Raingage
RAINGAGE-1495	CUMULATIVE	1.000000	1.000000	TIMESERIES	100yr-24hr		
; New Raingage
RAINGAGE-1497	CUMULATIVE	1.000000	1.000000	TIMESERIES	100yr-24hr		
; New Raingage
RAINGAGE-1499	CUMULATIVE	1.000000	1.000000	TIMESERIES	100yr-24hr		
; New Raingage
RAINGAGE-15	CUMULATIVE	1.000000	1.000000	TIMESERIES	100yr-24hr		
; New Raingage
RAINGAGE-1501	CUMULATIVE	1.000000	1.000000	TIMESERIES	100yr-24hr		
; New Raingage
RAINGAGE-1503	CUMULATIVE	1.000000	1.000000	TIMESERIES	100yr-24hr		
; New Raingage
RAINGAGE-1505	CUMULATIVE	1.000000	1.000000	TIMESERIES	100yr-24hr		
; New Raingage
RAINGAGE-1507	CUMULATIVE	1.000000	1.000000	TIMESERIES	100yr-24hr		
; New Raingage
RAINGAGE-1509	CUMULATIVE	1.000000	1.000000	TIMESERIES	100yr-24hr		
; New Raingage
RAINGAGE-151	CUMULATIVE	1.000000	1.000000	TIMESERIES	100yr-24hr		
; New Raingage
RAINGAGE-1511	CUMULATIVE	1.000000	1.000000	TIMESERIES	100yr-24hr		
; New Raingage
RAINGAGE-1513	CUMULATIVE	1.000000	1.000000	TIMESERIES	100yr-24hr		
; New Raingage
RAINGAGE-1515	CUMULATIVE	1.000000	1.000000	TIMESERIES	100yr-24hr		
; New Raingage
RAINGAGE-1517	CUMULATIVE	1.000000	1.000000	TIMESERIES	100yr-24hr		
; New Raingage
RAINGAGE-1519	CUMULATIVE	1.000000	1.000000	TIMESERIES	100yr-24hr		
; New Raingage
RAINGAGE-1521	CUMULATIVE	1.000000	1.000000	TIMESERIES	100yr-24hr		
; New Raingage
RAINGAGE-1523	CUMULATIVE	1.000000	1.000000	TIMESERIES	100yr-24hr		
; New Raingage
RAINGAGE-1525	CUMULATIVE	1.000000	1.000000	TIMESERIES	100yr-24hr		
; New Raingage
RAINGAGE-1527	CUMULATIVE	1.000000	1.000000	TIMESERIES	100yr-24hr		
; New Raingage
RAINGAGE-1529	CUMULATIVE	1.000000	1.000000	TIMESERIES	100yr-24hr		
; New Raingage
RAINGAGE-153	CUMULATIVE	1.000000	1.000000	TIMESERIES	100yr-24hr		
; New Raingage
RAINGAGE-1531	CUMULATIVE	1.000000	1.000000	TIMESERIES	100yr-24hr		
; New Raingage
RAINGAGE-1533	CUMULATIVE	1.000000	1.000000	TIMESERIES	100yr-24hr		
; New Raingage
RAINGAGE-1535	CUMULATIVE	1.000000	1.000000	TIMESERIES	100yr-24hr		
; New Raingage
RAINGAGE-1537	CUMULATIVE	1.000000	1.000000	TIMESERIES	100yr-24hr		
; New Raingage
RAINGAGE-1539	CUMULATIVE	1.000000	1.000000	TIMESERIES	100yr-24hr		
; New Raingage
RAINGAGE-1541	CUMULATIVE	1.000000	1.000000	TIMESERIES	100yr-24hr		
; New Raingage
RAINGAGE-1543	CUMULATIVE	1.000000	1.000000	TIMESERIES	100yr-24hr		
; New Raingage
RAINGAGE-1545	CUMULATIVE	1.000000	1.000000	TIMESERIES	100yr-24hr		
; New Raingage
RAINGAGE-1547	CUMULATIVE	1.000000	1.000000	TIMESERIES	100yr-24hr		
; New Raingage
RAINGAGE-1549	CUMULATIVE	1.000000	1.000000	TIMESERIES	100yr-24hr		
; New Raingage
RAINGAGE-155	CUMULATIVE	1.000000	1.000000	TIMESERIES	100yr-24hr		
; New Raingage
RAINGAGE-1551	CUMULATIVE	1.000000	1.000000	TIMESERIES	100yr-24hr		
; New Raingage
RAINGAGE-1553	CUMULATIVE	1.000000	1.000000	TIMESERIES	100yr-24hr		
; New Raingage
RAINGAGE-1555	CUMULATIVE	1.000000	1.000000	TIMESERIES	100yr-24hr		
; New Raingage
RAINGAGE-1557	CUMULATIVE	1.000000	1.000000	TIMESERIES	100yr-24hr		
; New Raingage
RAINGAGE-1559	CUMULATIVE	1.000000	1.000000	TIMESERIES	100yr-24hr		
; New Raingage
RAINGAGE-1561	CUMULATIVE	1.000000	1.000000	TIMESERIES	100yr-24hr		
; New Raingage
RAINGAGE-1563	CUMULATIVE	1.000000	1.000000	TIMESERIES	100yr-24hr		
; New Raingage
RAINGAGE-1565	CUMULATIVE	1.000000	1.000000	TIMESERIES	100yr-24hr		
; New Raingage
RAINGAGE-1567	CUMULATIVE	1.000000	1.000000	TIMESERIES	100yr-24hr		
; New Raingage
RAINGAGE-1569	CUMULATIVE	1.000000	1.000000	TIMESERIES	100yr-24hr		
; New Raingage
RAINGAGE-157	CUMULATIVE	1.000000	1.000000	TIMESERIES	100yr-24hr		
; New Raingage
RAINGAGE-1571	CUMULATIVE	1.000000	1.000000	TIMESERIES	100yr-24hr		
; New Raingage
RAINGAGE-1573	CUMULATIVE	1.000000	1.000000	TIMESERIES	100yr-24hr		
; New Raingage
RAINGAGE-1575	CUMULATIVE	1.000000	1.000000	TIMESERIES	100yr-24hr		
; New Raingage
RAINGAGE-1577	CUMULATIVE	1.000000	1.000000	TIMESERIES	100yr-24hr		
; New Raingage
RAINGAGE-1579	CUMULATIVE	1.000000	1.000000	TIMESERIES	100yr-24hr		
; New Raingage
RAINGAGE-1581	CUMULATIVE	1.000000	1.000000	TIMESERIES	100yr-24hr		
; New Raingage
RAINGAGE-1583	CUMULATIVE	1.000000	1.000000	TIMESERIES	100yr-24hr		
; New Raingage
RAINGAGE-1585	CUMULATIVE	1.000000	1.000000	TIMESERIES	100yr-24hr		
; New Raingage
RAINGAGE-1587	CUMULATIVE	1.000000	1.000000	TIMESERIES	100yr-24hr		
; New Raingage
RAINGAGE-1589	CUMULATIVE	1.000000	1.000000	TIMESERIES	100yr-24hr		
; New Raingage
RAINGAGE-159	CUMULATIVE	1.000000	1.000000	TIMESERIES	100yr-24hr		
; New Raingage
RAINGAGE-1591	CUMULATIVE	1.000000	1.000000	TIMESERIES	100yr-24hr		
; New Raingage
RAINGAGE-1593	CUMULATIVE	1.000000	1.000000	TIMESERIES	100yr-24hr		
; New Raingage
RAINGAGE-1595	CUMULATIVE	1.000000	1.000000	TIMESERIES	100yr-24hr		
; New Raingage
RAINGAGE-1597	CUMULATIVE	1.000000	1.000000	TIMESERIES	100yr-24hr		
; New Raingage
RAINGAGE-1599	CUMULATIVE	1.000000	1.000000	TIMESERIES	100yr-24hr		
; New Raingage
RAINGAGE-1601	CUMULATIVE	1.000000	1.000000	TIMESERIES	100yr-24hr		
; New Raingage
RAINGAGE-1603	CUMULATIVE	1.000000	1.000000	TIMESERIES	100yr-24hr		
; New Raingage
RAINGAGE-1605	CUMULATIVE	1.000000	1.000000	TIMESERIES	100yr-24hr		
; New Raingage
RAINGAGE-1607	CUMULATIVE	1.000000	1.000000	TIMESERIES	100yr-24hr		
; New Raingage
RAINGAGE-1609	CUMULATIVE	1.000000	1.000000	TIMESERIES	100yr-24hr		
; New Raingage
RAINGAGE-161	CUMULATIVE	1.000000	1.000000	TIMESERIES	100yr-24hr		
; New Raingage
RAINGAGE-1611	CUMULATIVE	1.000000	1.000000	TIMESERIES	100yr-24hr		
; New Raingage
RAINGAGE-1613	CUMULATIVE	1.000000	1.000000	TIMESERIES	100yr-24hr		
; New Raingage
RAINGAGE-1615	CUMULATIVE	1.000000	1.000000	TIMESERIES	100yr-24hr		
; New Raingage
RAINGAGE-1617	CUMULATIVE	1.000000	1.000000	TIMESERIES	100yr-24hr		
; New Raingage
RAINGAGE-1619	CUMULATIVE	1.000000	1.000000	TIMESERIES	100yr-24hr		
; New Raingage
RAINGAGE-1621	CUMULATIVE	1.000000	1.000000	TIMESERIES	100yr-24hr		
; New Raingage
RAINGAGE-1623	CUMULATIVE	1.000000	1.000000	TIMESERIES	100yr-24hr		
; New Raingage
RAINGAGE-1625	CUMULATIVE	1.000000	1.000000	TIMESERIES	100yr-24hr		
; New Raingage
RAINGAGE-1627	CUMULATIVE	1.000000	1.000000	TIMESERIES	100yr-24hr		
; New Raingage
RAINGAGE-1629	CUMULATIVE	1.000000	1.000000	TIMESERIES	100yr-24hr		
; New Raingage
RAINGAGE-163	CUMULATIVE	1.000000	1.000000	TIMESERIES	100yr-24hr		
; New Raingage
RAINGAGE-1631	CUMULATIVE	1.000000	1.000000	TIMESERIES	100yr-24hr		
; New Raingage
RAINGAGE-1633	CUMULATIVE	1.000000	1.000000	TIMESERIES	100yr-24hr		
; New Raingage
RAINGAGE-1635	CUMULATIVE	1.000000	1.000000	TIMESERIES	100yr-24hr		
; New Raingage
RAINGAGE-1637	CUMULATIVE	1.000000	1.000000	TIMESERIES	100yr-24hr		
; New Raingage
RAINGAGE-1639	CUMULATIVE	1.000000	1.000000	TIMESERIES	100yr-24hr		
; New Raingage
RAINGAGE-1641	CUMULATIVE	1.000000	1.000000	TIMESERIES	100yr-24hr		
; New Raingage