[OPTIONS]
;Option and Files Scenario Set: BASE, Base Simulation Options
FLOW_UNITS	CFS
INFILTRATION	CURVE_NUMBER
FLOW_ROUTING	DYNWAVE
ALLOW_PONDING	YES
DRY_DAYS	5.000000
SKIP_STEADY_STATE 	NO
IGNORE_RAINFALL	NO
IGNORE_SNOWMELT	NO
IGNORE_GROUNDWATER	NO
IGNORE_QUALITY	NO
FORCE_MAIN_EQUATION	H-W
LINK_OFFSETS	DEPTH
MIN_SLOPE	0.000000
START_DATE	01/01/2002
START_TIME	00:00
END_DATE	01/01/2002
END_TIME	23:00
REPORT_START_DATE	01/01/2002
REPORT_START_TIME	00:00
SWEEP_START	01/01
SWEEP_END	12/31
WET_STEP	00:05:00
DRY_STEP	01:00:00
ROUTING_STEP	30.000000
REPORT_STEP	00:01:00
INERTIAL_DAMPING	PARTIAL
VARIABLE_STEP	0.750000
LENGTHENING_STEP	10
MIN_SURFAREA	0.000000
NORMAL_FLOW_LIMITED	BOTH

[FILES]

[RAINGAGES]
; New Raingage
RAINGAGE-1	CUMULATIVE	0.050000	0.000000	TIMESERIES	1IN:1HR

[HYDROGRAPHS]

[TEMPERATURE]

[SUBCATCHMENTS]
; N4.20.40
SUB-1150	RAINGAGE-1	N4.20.40	8.795495	95.000000	1.000000	0.000000	0.000000
; N4.20.25
SUB-1152	RAINGAGE-1	N4.20.25	8.880618	95.000000	1.000000	0.000000	0.000000
; N4.40.0
SUB-1154	RAINGAGE-1	N4.40.0	3.752021	95.000000	1.000000	0.000000	0.000000
; N3.110.0
SUB-1156	RAINGAGE-1	N3.110.0	21.231596	45.000000	1.000000	0.000000	0.000000
; N3.110.10
SUB-1158	RAINGAGE-1	N3.110.10	11.472740	45.000000	1.000000	0.000000	0.000000
; N3.100.5
SUB-1160	RAINGAGE-1	N3.100.5	10.384239	45.000000	1.000000	0.000000	0.000000
; N3.110.20
SUB-1162	RAINGAGE-1	N3.110.20	22.929885	45.000000	1.000000	0.000000	0.000000
; N3.110.40
SUB-1164	RAINGAGE-1	N3.110.40	10.136126	45.000000	1.000000	0.000000	0.000000
; N3.100.30
SUB-1166	RAINGAGE-1	N3.100.30	5.140465	40.000000	1.000000	0.000000	0.000000
; N3.100.20
SUB-1168	RAINGAGE-1	N3.100.20	4.836228	45.000000	1.000000	0.000000	0.000000
; N3.100.10
SUB-1170	RAINGAGE-1	N3.100.10	5.735736	45.000000	1.000000	0.000000	0.000000
; N3.95.0
SUB-1172	RAINGAGE-1	N3.95.0	4.253519	45.000000	1.000000	0.000000	0.000000
; N3.90.20
SUB-1174	RAINGAGE-1	N3.90.20	13.958950	55.000000	1.000000	0.000000	0.000000
; N3.90.10
SUB-1176	RAINGAGE-1	N3.90.10	9.647306	45.000000	1.000000	0.000000	0.000000
; N3.90.0
SUB-1178	RAINGAGE-1	N3.90.0	16.794356	45.000000	1.000000	0.000000	0.000000
; N1.50.0
SUB-1180	RAINGAGE-1	N1.50.0	10.273491	45.000000	1.000000	0.000000	0.000000
; N1.50.10
SUB-1182	RAINGAGE-1	N1.50.10	26.112359	45.000000	1.000000	0.000000	0.000000
; N1.60.0
SUB-1184	RAINGAGE-1	N1.60.0	16.758161	60.000000	1.000000	0.000000	0.000000
; N4.30.0
SUB-1186	RAINGAGE-1	N4.30.0	8.773773	10.000000	1.000000	0.000000	0.000000
; N3.55.0
SUB-1188	RAINGAGE-1	N3.55.0	2.610620	80.000000	1.000000	0.000000	0.000000
; N3.50.10
SUB-1190	RAINGAGE-1	N3.50.10	18.977631	90.000000	1.000000	0.000000	0.000000
; N3.50.0
SUB-1192	RAINGAGE-1	N3.50.0	4.768019	60.000000	1.000000	0.000000	0.000000
; N4.20.0
SUB-1194	RAINGAGE-1	N4.20.0	3.934345	50.000000	1.000000	0.000000	0.000000
; N3.10.20
SUB-1196	RAINGAGE-1	N3.10.20	9.195456	70.000000	1.000000	0.000000	0.000000
; N1.70.0
SUB-1198	RAINGAGE-1	N1.70.0	2.891918	60.000000	1.000000	0.000000	0.000000
; N3.10.40
SUB-1200	RAINGAGE-1	N3.10.40	6.763947	90.000000	1.000000	0.000000	0.000000
; N3.10.50
SUB-1202	RAINGAGE-1	N3.10.50	13.577487	45.000000	1.000000	0.000000	0.000000
; N3.10.30
SUB-1204	RAINGAGE-1	N3.10.30	10.108400	45.000000	1.000000	0.000000	0.000000
; N3.60.40
SUB-1206	RAINGAGE-1	N3.60.40	2.762658	45.000000	1.000000	0.000000	0.000000
; N3.65.0
SUB-1208	RAINGAGE-1	N3.65.0	4.097210	60.000000	1.000000	0.000000	0.000000
; N3.60.25
SUB-1210	RAINGAGE-1	N3.60.25	1.889624	60.000000	1.000000	0.000000	0.000000
; N3.60.20
SUB-1212	RAINGAGE-1	N3.60.20	7.808470	75.000000	1.000000	0.000000	0.000000
; N3.60.10
SUB-1214	RAINGAGE-1	N3.60.10	10.584233	70.000000	1.000000	0.000000	0.000000
; N3.100.0
SUB-1216	RAINGAGE-1	N3.100.0	11.432631	90.000000	1.000000	0.000000	0.000000
; N2.10.0
SUB-1218	RAINGAGE-1	N2.10.0	2.032361	80.000000	1.000000	0.000000	0.000000
; N2.10.10
SUB-1220	RAINGAGE-1	N2.10.10	15.994271	60.000000	1.000000	0.000000	0.000000
; N2.10.20
SUB-1222	RAINGAGE-1	N2.10.20	7.103214	45.000000	1.000000	0.000000	0.000000
; N2.10.30
SUB-1224	RAINGAGE-1	N2.10.30	7.501737	90.000000	1.000000	0.000000	0.000000
; N2.10.40
SUB-1226	RAINGAGE-1	N2.10.40	10.392467	75.000000	1.000000	0.000000	0.000000
; N11.10.0
SUB-1228	RAINGAGE-1	N11.10.0	6.993312	90.000000	1.000000	0.000000	0.000000
; N11.10.10
SUB-1230	RAINGAGE-1	N11.10.10	4.914301	95.000000	1.000000	0.000000	0.000000
; N3.170.2
SUB-1232	RAINGAGE-1	N3.170.2	23.370787	55.000000	1.000000	0.000000	0.000000
; N3.170.0
SUB-1234	RAINGAGE-1	N3.170.0	14.077605	45.000000	1.000000	0.000000	0.000000
; N3.160.0
SUB-1236	RAINGAGE-1	N3.160.0	15.134174	45.000000	1.000000	0.000000	0.000000
; N3.150.10
SUB-1238	RAINGAGE-1	N3.150.10	22.276170	45.000000	1.000000	0.000000	0.000000
; N3.150.0
SUB-1240	RAINGAGE-1	N3.150.0	10.538326	60.000000	1.000000	0.000000	0.000000
; N3.10.70
SUB-1242	RAINGAGE-1	N3.10.70	12.015413	45.000000	1.000000	0.000000	0.000000
; N3.120.0
SUB-1244	RAINGAGE-1	N3.120.0	14.765425	45.000000	1.000000	0.000000	0.000000
; N1.50.20
SUB-1246	RAINGAGE-1	N1.50.20	6.717153	60.000000	1.000000	0.000000	0.000000
; N1.60.30
SUB-1248	RAINGAGE-1	N1.60.30	2.338215	60.000000	1.000000	0.000000	0.000000
; N1.50.45
SUB-1250	RAINGAGE-1	N1.50.45	14.470148	75.000000	1.000000	0.000000	0.000000
; N1.50.40
SUB-1252	RAINGAGE-1	N1.50.40	14.436892	80.000000	650.000000	0.000000	0.000000
; N1.10.0
SUB-1254	RAINGAGE-1	N1.10.0	64.116289	45.000000	1.000000	0.000000	0.000000
; N3.10.80
SUB-1256	RAINGAGE-1	N3.10.80	44.912333	60.000000	1.000000	0.000000	0.000000
; N3.150.20
SUB-1258	RAINGAGE-1	N3.150.20	23.725105	60.000000	1.000000	0.000000	0.000000
; N3.170.5
SUB-1260	RAINGAGE-1	N3.170.5	24.769541	65.000000	1.000000	0.000000	0.000000
; N3.175.0
SUB-1262	RAINGAGE-1	N3.175.0	14.506303	65.000000	1.000000	0.000000	0.000000
; N9.10.20
SUB-1264	RAINGAGE-1	N9.10.20	7.139819	75.000000	1.000000	0.000000	0.000000
; N9.20.0
SUB-1266	RAINGAGE-1	N9.20.0	13.027122	75.000000	1.000000	0.000000	0.000000
; N9.10.0
SUB-1268	RAINGAGE-1	N9.10.0	9.192051	60.000000	1.000000	0.000000	0.000000
; N14.10.0
SUB-1270	RAINGAGE-1	N14.10.0	6.527323	60.000000	1.000000	0.000000	0.000000
; N3.180.0
SUB-1272	RAINGAGE-1	N3.180.0	1.049456	60.000000	1.000000	0.000000	0.000000
; N13.10.0
SUB-1274	RAINGAGE-1	N13.10.0	9.762335	45.000000	2500.000000	0.000000	0.000000
; N3.190.0
SUB-1276	RAINGAGE-1	N3.190.0	19.949483	45.000000	1.000000	0.000000	0.000000
; N3.180.10
SUB-1278	RAINGAGE-1	N3.180.10	22.138587	60.000000	1.000000	0.000000	0.000000
; N3.177.0
SUB-1280	RAINGAGE-1	N3.177.0	17.831784	60.000000	1.000000	0.000000	0.000000
; N3.170.15
SUB-1282	RAINGAGE-1	N3.170.15	17.596614	60.000000	1.000000	0.000000	0.000000
; N3.170.20
SUB-1284	RAINGAGE-1	N3.170.20	21.891235	45.000000	1.000000	0.000000	0.000000
; N3.10.130
SUB-1286	RAINGAGE-1	N3.10.130	16.420394	10.000000	1.000000	0.000000	0.000000
; N3.10.120
SUB-1288	RAINGAGE-1	N3.10.120	10.826820	45.000000	1.000000	0.000000	0.000000
; N3.10.110
SUB-1290	RAINGAGE-1	N3.10.110	6.113481	45.000000	1.000000	0.000000	0.000000
; N3.10.100
SUB-1292	RAINGAGE-1	N3.10.100	7.728327	45.000000	1.000000	0.000000	0.000000
; N3.150.30
SUB-1294	RAINGAGE-1	N3.150.30	8.743240	55.000000	1.000000	0.000000	0.000000
; N3.130.0
SUB-1296	RAINGAGE-1	N3.130.0	6.768077	45.000000	1.000000	0.000000	0.000000
; N1.10.5
SUB-1298	RAINGAGE-1	N1.10.5	13.384559	45.000000	1.000000	0.000000	0.000000
; N1.10.10
SUB-1300	RAINGAGE-1	N1.10.10	5.304252	45.000000	1.000000	0.000000	0.000000
; N1.10.20
SUB-1302	RAINGAGE-1	N1.10.20	16.296504	45.000000	1.000000	0.000000	0.000000
; N1.80.0
SUB-1304	RAINGAGE-1	N1.80.0	3.676514	50.000000	1.000000	0.000000	0.000000
; N1.50.65
SUB-1306	RAINGAGE-1	N1.50.65	5.179434	50.000000	1.000000	0.000000	0.000000
; N13.15.0
SUB-1308	RAINGAGE-1	N13.15.0	29.920655	45.000000	1000.000000	0.000000	0.000000
; N3.220.0
SUB-1310	RAINGAGE-1	N3.220.0	34.534991	45.000000	1.000000	0.000000	0.000000
; N3.190.10
SUB-1312	RAINGAGE-1	N3.190.10	7.235988	60.000000	1.000000	0.000000	0.000000
; N3.200.0
SUB-1314	RAINGAGE-1	N3.200.0	13.842931	45.000000	1.000000	0.000000	0.000000
; N3.210.0
SUB-1316	RAINGAGE-1	N3.210.0	17.249530	45.000000	1.000000	0.000000	0.000000
; N3.190.17
SUB-1318	RAINGAGE-1	N3.190.17	31.885167	45.000000	1.000000	0.000000	0.000000
; N3.190.20
SUB-1320	RAINGAGE-1	N3.190.20	9.065142	45.000000	1.000000	0.000000	0.000000
; N3.10.135
SUB-1322	RAINGAGE-1	N3.10.135	25.802960	45.000000	1.000000	0.000000	0.000000
; N3.10.140
SUB-1324	RAINGAGE-1	N3.10.140	15.263313	45.000000	1.000000	0.000000	0.000000
; N1.30.0
SUB-1326	RAINGAGE-1	N1.30.0	18.253368	45.000000	1.000000	0.000000	0.000000
; N1.40.10
SUB-1328	RAINGAGE-1	N1.40.10	13.238067	45.000000	500.000000	0.000000	0.000000
; N1.30.20
SUB-1330	RAINGAGE-1	N1.30.20	6.372433	45.000000	1.000000	0.000000	0.000000
; N1.20.10
SUB-1332	RAINGAGE-1	N1.20.10	5.913255	45.000000	1.000000	0.000000	0.000000
; N1.20.20
SUB-1334	RAINGAGE-1	N1.20.20	4.474922	45.000000	1.000000	0.000000	0.000000
; N3.140.0
SUB-1336	RAINGAGE-1	N3.140.0	13.716523	45.000000	1.000000	0.000000	0.000000
; N1.20.30
SUB-1338	RAINGAGE-1	N1.20.30	34.987199	45.000000	1.000000	0.000000	0.000000
; N1.10.30
SUB-1340	RAINGAGE-1	N1.10.30	16.121369	45.000000	1.000000	0.000000	0.000000
; N1.20.40
SUB-1342	RAINGAGE-1	N1.20.40	38.477000	45.000000	1.000000	0.000000	0.000000
; N1.10.35
SUB-1344	RAINGAGE-1	N1.10.35	10.515775	60.000000	1.000000	0.000000	0.000000
; N1.12.0
SUB-1346	RAINGAGE-1	N1.12.0	6.811024	60.000000	1.000000	0.000000	0.000000
; N1.10.40
SUB-1348	RAINGAGE-1	N1.10.40	21.620682	60.000000	1.000000	0.000000	0.000000
; N8.10.30
SUB-1350	RAINGAGE-1	N8.10.30	75.059075	90.000000	1.000000	0.000000	0.000000
; N10.10.0
SUB-1352	RAINGAGE-1	N10.10.0	48.600402	60.000000	1.000000	0.000000	0.000000
; N8.10.20
SUB-1354	RAINGAGE-1	N8.10.20	56.300835	60.000000	1.000000	0.000000	0.000000
; N8.10.0
SUB-1356	RAINGAGE-1	N8.10.0	23.450558	45.000000	1.000000	0.000000	0.000000
; N8.10.10
SUB-1358	RAINGAGE-1	N8.10.10	15.811213	45.000000	1.000000	0.000000	0.000000
; N6.10.10
SUB-1360	RAINGAGE-1	N6.10.10	15.639014	60.000000	1.000000	0.000000	0.000000
; N6.10.0
SUB-1362	RAINGAGE-1	N6.10.0	11.784268	30.000000	1.000000	0.000000	0.000000
; N7.20.0
SUB-1364	RAINGAGE-1	N7.20.0	12.973933	60.000000	1.000000	0.000000	0.000000
; N7.10.20
SUB-1366	RAINGAGE-1	N7.10.20	6.488432	60.000000	1.000000	0.000000	0.000000
; N7.10.10
SUB-1368	RAINGAGE-1	N7.10.10	12.825981	60.000000	1.000000	0.000000	0.000000
; N7.10.0
SUB-1370	RAINGAGE-1	N7.10.0	7.854222	60.000000	1.000000	0.000000	0.000000
; N3.10.145
SUB-1372	RAINGAGE-1	N3.10.145	8.766106	60.000000	1.000000	0.000000	0.000000
; N3.10.150
SUB-1374	RAINGAGE-1	N3.10.150	13.626959	60.000000	1.000000	0.000000	0.000000
; N13.35.0
SUB-1376	RAINGAGE-1	N13.35.0	8.188144	60.000000	1.000000	0.000000	0.000000
; N13.35.10
SUB-1378	RAINGAGE-1	N13.35.10	4.866806	60.000000	1.000000	0.000000	0.000000
; N13.35.20
SUB-1380	RAINGAGE-1	N13.35.20	13.100761	60.000000	1.000000	0.000000	0.000000
; N3.220.10
SUB-1382	RAINGAGE-1	N3.220.10	14.835349	60.000000	1.000000	0.000000	0.000000
; N13.20.0
SUB-1384	RAINGAGE-1	N13.20.0	15.894051	45.000000	2500.000000	0.000000	0.000000
; N13.10.25
SUB-1386	RAINGAGE-1	N13.10.25	4.784518	80.000000	1.000000	0.000000	0.000000
; N13.10.20
SUB-1388	RAINGAGE-1	N13.10.20	12.438942	60.000000	400.000000	0.000000	0.000000
; N13.10.30
SUB-1390	RAINGAGE-1	N13.10.30	32.879609	80.000000	500.000000	0.000000	0.000000
; N13.10.40
SUB-1392	RAINGAGE-1	N13.10.40	27.854753	80.000000	500.000000	0.000000	0.000000
; N13.10.50
SUB-1394	RAINGAGE-1	N13.10.50	7.905187	45.000000	400.000000	0.000000	0.000000
; N5.10.0
SUB-1396	RAINGAGE-1	N5.10.0	12.517090	95.000000	1.000000	0.000000	0.000000
; N4.20.20
SUB-1398	RAINGAGE-1	N4.20.20	8.935311	95.000000	1.000000	0.000000	0.000000
; N4.10.0
SUB-1400	RAINGAGE-1	N4.10.0	31.443236	45.000000	1.000000	0.000000	0.000000
; N3.30.0
SUB-1402	RAINGAGE-1	N3.30.0	19.147130	25.000000	1.000000	0.000000	0.000000
; N3.10.0
SUB-1404	RAINGAGE-1	N3.10.0	33.291127	45.000000	1.000000	0.000000	0.000000
; N4.20.10
SUB-1406	RAINGAGE-1	N4.20.10	7.062195	75.000000	1.000000	0.000000	0.000000
; N3.30.10
SUB-1408	RAINGAGE-1	N3.30.10	19.159176	50.000000	1.000000	0.000000	0.000000
; N3.60.5
SUB-1410	RAINGAGE-1	N3.60.5	20.041981	95.000000	1.000000	0.000000	0.000000
; N1.50.50
SUB-1412	RAINGAGE-1	N1.50.50	8.016990	60.000000	1.000000	0.000000	0.000000
; N1.70.10
SUB-1414	RAINGAGE-1	N1.70.10	23.430402	95.000000	1.000000	0.000000	0.000000
; N3.100.3
SUB-1416	RAINGAGE-1	N3.100.3	4.058604	45.000000	1.000000	0.000000	0.000000
; N3.100.4
SUB-1418	RAINGAGE-1	N3.100.4	3.392928	60.000000	1.000000	0.000000	0.000000
; N3.60.0
SUB-1420	RAINGAGE-1	N3.60.0	11.896655	45.000000	1.000000	0.000000	0.000000
; N3.30.15
SUB-1422	RAINGAGE-1	N3.30.15	10.436869	90.000000	1.000000	0.000000	0.000000
; N3.10.125
SUB-1424	RAINGAGE-1	N3.10.125	23.614712	45.000000	1.000000	0.000000	0.000000
; N3.10.122
SUB-1426	RAINGAGE-1	N3.10.122	7.839060	45.000000	1.000000	0.000000	0.000000
; N1.10.32
SUB-1428	RAINGAGE-1	N1.10.32	13.645877	60.000000	1.000000	0.000000	0.000000
; N3.110.20
SUB-1430	RAINGAGE-1	N3.110.20	4.891176	45.000000	0.000000	0.000000	0.000000
; N4.30.0
SUB-1432	RAINGAGE-1	N4.30.0	8.664566	10.000000	0.000000	0.000000	0.000000
; N3.10.50
SUB-1434	RAINGAGE-1	N3.10.50	1.118956	20.000000	0.000000	0.000000	0.000000
; N3.150.10
SUB-1436	RAINGAGE-1	N3.150.10	14.013243	45.000000	0.000000	0.000000	0.000000
; N3.170.2
SUB-1438	RAINGAGE-1	N3.170.2	6.480722	60.000000	0.000000	0.000000	0.000000
; N1.80.0
SUB-1440	RAINGAGE-1	N1.80.0	2.831465	0.000000	0.000000	0.000000	0.000000
; N3.10.130
SUB-1442	RAINGAGE-1	N3.10.130	5.104245	45.000000	0.000000	0.000000	0.000000
; N1.30.20
SUB-1444	RAINGAGE-1	N1.30.20	8.278639	45.000000	0.000000	0.000000	0.000000
; N7.10.10
SUB-1446	RAINGAGE-1	N7.10.10	22.319179	60.000000	0.000000	0.000000	0.000000
; N3.60.20
SUB-1448	RAINGAGE-1	N3.60.20	8.543531	60.000000	0.000000	0.000000	0.000000
; N3.60.40
SUB-1450	RAINGAGE-1	N3.60.40	6.233308	90.000000	1.000000	0.000000	0.000000
; N6.10.5
SUB-1452	RAINGAGE-1	N6.10.5	8.474280	95.000000	1.000000	0.000000	0.000000
; N5.10.0B
SUB-1454	RAINGAGE-1	N5.10.0B	10.200146	0.000000	0.000000	0.000000	0.000000
; N4.40.10
SUB-1456	RAINGAGE-1	N4.40.10	5.383497	90.000000	1.000000	0.000000	0.000000
; N15.8.0
SUB-1458	RAINGAGE-1	N15.8.0	35.984602	50.000000	1.000000	0.000000	0.000000
; N15.10.0
SUB-1460	RAINGAGE-1	N15.10.0	57.221209	0.000000	0.000000	0.000000	0.000000
; N18.10.0
SUB-1462	RAINGAGE-1	N18.10.0	24.326449	50.000000	500.000000	0.000000	0.000000
; N10.10.10
SUB-1464	RAINGAGE-1	N10.10.10	55.146171	60.000000	1.000000	0.000000	0.000000
; N1.50.55
SUB-1466	RAINGAGE-1	N1.50.55	17.587564	60.000000	1.000000	0.000000	0.000000
; N1.40.0
SUB-1468	RAINGAGE-1	N1.40.0	13.922485	60.000000	1.000000	0.000000	0.000000
; N18.5.0
SUB-1470	RAINGAGE-1	N18.5.0	31.172001	60.000000	1.000000	0.000000	0.000000
; N15.7.0
SUB-1472	RAINGAGE-1	N15.7.0	26.278525	50.000000	1.000000	0.000000	0.000000
; N1.50.65
SUB-1474	RAINGAGE-1	N1.50.65	9.991600	60.000000	0.000000	0.000000	0.000000
; N3.140.0
SUB-1476	RAINGAGE-1	N3.140.0	15.951213	45.000000	0.000000	0.000000	0.000000
; N10.5.0
SUB-1478	RAINGAGE-1	N10.5.0	34.354672	60.000000	1.000000	0.000000	0.000000
; N10.10.5
SUB-1480	RAINGAGE-1	N10.10.5	26.976721	65.000000	1.000000	0.000000	0.000000
; N1.10.37
SUB-1482	RAINGAGE-1	N1.10.37	13.902187	60.000000	1.000000	0.000000	0.000000
; N3.180.7
SUB-1484	RAINGAGE-1	N3.180.7	14.748835	60.000000	1.000000	0.000000	0.000000
; N1.50.42
SUB-1486	RAINGAGE-1	N1.50.42	11.982352	60.000000	1.000000	0.000000	0.000000
; N3.10.45
SUB-1488	RAINGAGE-1	N3.10.45	11.583839	60.000000	1.000000	0.000000	0.000000
; N7.10.30
SUB-1490	RAINGAGE-1	N7.10.30	9.519680	60.000000	100.000000	0.000000	0.000000
; N7.10.30A
SUB-1492	RAINGAGE-1	N7.10.30A	5.525807	45.000000	360.000000	0.000000	0.000000
; N7.10.30A
SUB-1494	RAINGAGE-1	N7.10.30A	7.513358	45.000000	630.000000	0.000000	0.000000
; N16.10.2
SUB-1496	RAINGAGE-1	N16.10.2	5.488371	45.000000	1.000000	0.000000	0.000000
; N17.10.0A
SUB-1498	RAINGAGE-1	N17.10.0A	3.415321	45.000000	1.000000	0.000000	0.000000
; N17.10.0C
SUB-1500	RAINGAGE-1	N17.10.0C	1.681505	10.000000	1.000000	0.000000	0.000000
; N17.10.0B
SUB-1502	RAINGAGE-1	N17.10.0B	4.313585	45.000000	1.000000	0.000000	0.000000
; N17.10.5
SUB-1504	RAINGAGE-1	N17.10.5	9.428281	50.000000	1.000000	0.000000	0.000000
; N17.10.0
SUB-1506	RAINGAGE-1	N17.10.0	4.962126	45.000000	1.000000	0.000000	0.000000
; N16.10.0
SUB-1508	RAINGAGE-1	N16.10.0	13.414775	0.000000	0.000000	0.000000	0.000000
; N7.10.30D
SUB-1510	RAINGAGE-1	N7.10.30D	0.957739	45.000000	100.000000	0.000000	0.000000
; N7.10.30C
SUB-1512	RAINGAGE-1	N7.10.30C	1.247639	45.000000	100.000000	0.000000	0.000000
; N1.70.0
SUB-1514	RAINGAGE-1	N1.70.0	5.689832	60.000000	1.000000	0.000000	0.000000
; N1.60.0C
SUB-1516	RAINGAGE-1	N1.60.0C	8.496945	60.000000	1.000000	0.000000	0.000000
; N1.60.0B
SUB-1518	RAINGAGE-1	N1.60.0B	4.434942	90.000000	1.000000	0.000000	0.000000
; N1.60.0A
SUB-1520	RAINGAGE-1	N1.60.0A	3.806983	90.000000	1.000000	0.000000	0.000000
; N1.60.30
SUB-1522	RAINGAGE-1	N1.60.30	2.355585	60.000000	1.000000	0.000000	0.000000
; N7.10.10B
SUB-1524	RAINGAGE-1	N7.10.10B	11.788379	0.000000	0.000000	0.000000	0.000000
; N1.50.20B
SUB-1526	RAINGAGE-1	N1.50.20B	4.195960	0.000000	0.000000	0.000000	0.000000

[SUBAREAS]
SUB-1150	0.100000	0.001000	0.050000	0.050000	25.000000	OUTLET
SUB-1152	0.100000	0.001000	0.050000	0.050000	25.000000	OUTLET
SUB-1154	0.100000	0.001000	0.050000	0.050000	25.000000	OUTLET
SUB-1156	0.100000	0.001000	0.050000	0.050000	25.000000	OUTLET
SUB-1158	0.100000	0.001000	0.050000	0.050000	25.000000	OUTLET
SUB-1160	0.100000	0.001000	0.050000	0.050000	25.000000	OUTLET
SUB-1162	0.100000	0.001000	0.050000	0.050000	25.000000	OUTLET
SUB-1164	0.100000	0.001000	0.050000	0.050000	25.000000	OUTLET
SUB-1166	0.100000	0.001000	0.050000	0.050000	25.000000	OUTLET
SUB-1168	0.100000	0.001000	0.050000	0.050000	25.000000	OUTLET
SUB-1170	0.100000	0.001000	0.050000	0.050000	25.000000	OUTLET
SUB-1172	0.100000	0.001000	0.050000	0.050000	25.000000	OUTLET
SUB-1174	0.100000	0.001000	0.050000	0.050000	25.000000	OUTLET
SUB-1176	0.100000	0.001000	0.050000	0.050000	25.000000	OUTLET
SUB-1178	0.100000	0.001000	0.050000	0.050000	25.000000	OUTLET
SUB-1180	0.100000	0.001000	0.050000	0.050000	25.000000	OUTLET
SUB-1182	0.100000	0.001000	0.050000	0.050000	25.000000	OUTLET
SUB-1184	0.100000	0.001000	0.050000	0.050000	25.000000	OUTLET
SUB-1186	0.100000	0.001000	0.050000	0.050000	25.000000	OUTLET
SUB-1188	0.100000	0.001000	0.050000	0.050000	25.000000	OUTLET
SUB-1190	0.100000	0.001000	0.050000	0.050000	25.000000	OUTLET
SUB-1192	0.100000	0.001000	0.050000	0.050000	25.000000	OUTLET
SUB-1194	0.100000	0.001000	0.050000	0.050000	25.000000	OUTLET
SUB-1196	0.100000	0.001000	0.050000	0.050000	25.000000	OUTLET
SUB-1198	0.100000	0.001000	0.050000	0.050000	25.000000	OUTLET
SUB-1200	0.100000	0.001000	0.050000	0.050000	25.000000	OUTLET
SUB-1202	0.100000	0.001000	0.050000	0.050000	25.000000	OUTLET
SUB-1204	0.100000	0.001000	0.050000	0.050000	25.000000	OUTLET
SUB-1206	0.100000	0.001000	0.050000	0.050000	25.000000	OUTLET
SUB-1208	0.100000	0.001000	0.050000	0.050000	25.000000	OUTLET
SUB-1210	0.100000	0.001000	0.050000	0.050000	25.000000	OUTLET
SUB-1212	0.100000	0.001000	0.050000	0.050000	25.000000	OUTLET
SUB-1214	0.100000	0.001000	0.050000	0.050000	25.000000	OUTLET
SUB-1216	0.100000	0.001000	0.050000	0.050000	25.000000	OUTLET
SUB-1218	0.100000	0.001000	0.050000	0.050000	25.000000	OUTLET
SUB-1220	0.100000	0.001000	0.050000	0.050000	25.000000	OUTLET
SUB-1222	0.100000	0.001000	0.050000	0.050000	25.000000	OUTLET
SUB-1224	0.100000	0.001000	0.050000	0.050000	25.000000	OUTLET
SUB-1226	0.100000	0.001000	0.050000	0.050000	25.000000	OUTLET
SUB-1228	0.100000	0.001000	0.050000	0.050000	25.000000	OUTLET
SUB-1230	0.100000	0.001000	0.050000	0.050000	25.000000	OUTLET
SUB-1232	0.100000	0.001000	0.050000	0.050000	25.000000	OUTLET
SUB-1234	0.100000	0.001000	0.050000	0.050000	25.000000	OUTLET
SUB-1236	0.100000	0.001000	0.050000	0.050000	25.000000	OUTLET
SUB-1238	0.100000	0.001000	0.050000	0.050000	25.000000	OUTLET
SUB-1240	0.100000	0.001000	0.050000	0.050000	25.000000	OUTLET
SUB-1242	0.100000	0.001000	0.050000	0.050000	25.000000	OUTLET
SUB-1244	0.100000	0.001000	0.050000	0.050000	25.000000	OUTLET
SUB-1246	0.100000	0.001000	0.050000	0.050000	25.000000	OUTLET
SUB-1248	0.100000	0.001000	0.050000	0.050000	25.000000	OUTLET
SUB-1250	0.100000	0.001000	0.050000	0.050000	25.000000	OUTLET
SUB-1252	0.100000	0.001000	0.050000	0.050000	25.000000	OUTLET
SUB-1254	0.100000	0.001000	0.050000	0.050000	25.000000	OUTLET
SUB-1256	0.100000	0.001000	0.050000	0.050000	25.000000	OUTLET
SUB-1258	0.100000	0.001000	0.050000	0.050000	25.000000	OUTLET
SUB-1260	0.100000	0.001000	0.050000	0.050000	25.000000	OUTLET
SUB-1262	0.100000	0.001000	0.050000	0.050000	25.000000	OUTLET
SUB-1264	0.100000	0.001000	0.050000	0.050000	25.000000	OUTLET
SUB-1266	0.100000	0.001000	0.050000	0.050000	25.000000	OUTLET
SUB-1268	0.100000	0.001000	0.050000	0.050000	25.000000	OUTLET
SUB-1270	0.100000	0.001000	0.050000	0.050000	25.000000	OUTLET
SUB-1272	0.100000	0.001000	0.050000	0.050000	25.000000	OUTLET
SUB-1274	0.100000	0.001000	0.050000	0.050000	25.000000	OUTLET
SUB-1276	0.100000	0.001000	0.050000	0.050000	25.000000	OUTLET
SUB-1278	0.100000	0.001000	0.050000	0.050000	25.000000	OUTLET
SUB-1280	0.100000	0.001000	0.050000	0.050000	25.000000	OUTLET
SUB-1282	0.100000	0.001000	0.050000	0.050000	25.000000	OUTLET
SUB-1284	0.100000	0.001000	0.050000	0.050000	25.000000	OUTLET
SUB-1286	0.100000	0.001000	0.050000	0.050000	25.000000	OUTLET
SUB-1288	0.100000	0.001000	0.050000	0.050000	25.000000	OUTLET
SUB-1290	0.100000	0.001000	0.050000	0.050000	25.000000	OUTLET
SUB-1292	0.100000	0.001000	0.050000	0.050000	25.000000	OUTLET
SUB-1294	0.100000	0.001000	0.050000	0.050000	25.000000	OUTLET
SUB-1296	0.100000	0.001000	0.050000	0.050000	25.000000	OUTLET
SUB-1298	0.100000	0.001000	0.050000	0.050000	25.000000	OUTLET
SUB-1300	0.100000	0.001000	0.050000	0.050000	25.000000	OUTLET
SUB-1302	0.100000	0.001000	0.050000	0.050000	25.000000	OUTLET
SUB-1304	0.100000	0.001000	0.050000	0.050000	25.000000	OUTLET
SUB-1306	0.100000	0.001000	0.050000	0.050000	25.000000	OUTLET
SUB-1308	0.100000	0.001000	0.050000	0.050000	25.000000	OUTLET
SUB-1310	0.100000	0.001000	0.050000	0.050000	25.000000	OUTLET
SUB-1312	0.100000	0.001000	0.050000	0.050000	25.000000	OUTLET
SUB-1314	0.100000	0.001000	0.050000	0.050000	25.000000	OUTLET
SUB-1316	0.100000	0.001000	0.050000	0.050000	25.000000	OUTLET
SUB-1318	0.100000	0.001000	0.050000	0.050000	25.000000	OUTLET
SUB-1320	0.100000	0.001000	0.050000	0.050000	25.000000	OUTLET
SUB-1322	0.100000	0.001000	0.050000	0.050000	25.000000	OUTLET
SUB-1324	0.100000	0.001000	0.050000	0.050000	25.000000	OUTLET
SUB-1326	0.100000	0.001000	0.050000	0.050000	25.000000	OUTLET
SUB-1328	0.100000	0.001000	0.050000	0.050000	25.000000	OUTLET
SUB-1330	0.100000	0.001000	0.050000	0.050000	25.000000	OUTLET
SUB-1332	0.100000	0.001000	0.050000	0.050000	25.000000	OUTLET
SUB-1334	0.100000	0.001000	0.050000	0.050000	25.000000	OUTLET
SUB-1336	0.100000	0.001000	0.050000	0.050000	25.000000	OUTLET
SUB-1338	0.100000	0.001000	0.050000	0.050000	25.000000	OUTLET
SUB-1340	0.100000	0.001000	0.050000	0.050000	25.000000	OUTLET
SUB-1342	0.100000	0.001000	0.050000	0.050000	25.000000	OUTLET
SUB-1344	0.100000	0.001000	0.050000	0.050000	25.000000	OUTLET
SUB-1346	0.100000	0.001000	0.050000	0.050000	25.000000	OUTLET
SUB-1348	0.100000	0.001000	0.050000	0.050000	25.000000	OUTLET
SUB-1350	0.100000	0.001000	0.050000	0.050000	25.000000	OUTLET
SUB-1352	0.100000	0.001000	0.050000	0.050000	25.000000	OUTLET
SUB-1354	0.100000	0.001000	0.050000	0.050000	25.000000	OUTLET
SUB-1356	0.100000	0.001000	0.050000	0.050000	25.000000	OUTLET
SUB-1358	0.100000	0.001000	0.050000	0.050000	25.000000	OUTLET
SUB-1360	0.100000	0.001000	0.050000	0.050000	25.000000	OUTLET
SUB-1362	0.100000	0.001000	0.050000	0.050000	25.000000	OUTLET
SUB-1364	0.100000	0.001000	0.050000	0.050000	25.000000	OUTLET
SUB-1366	0.100000	0.001000	0.050000	0.050000	25.000000	OUTLET
SUB-1368	0.100000	0.001000	0.050000	0.050000	25.000000	OUTLET
SUB-1370	0.100000	0.001000	0.050000	0.050000	25.000000	OUTLET
SUB-1372	0.100000	0.001000	0.050000	0.050000	25.000000	OUTLET
SUB-1374	0.100000	0.001000	0.050000	0.050000	25.000000	OUTLET
SUB-1376	0.100000	0.001000	0.050000	0.050000	25.000000	OUTLET
SUB-1378	0.100000	0.001000	0.050000	0.050000	25.000000	OUTLET
SUB-1380	0.100000	0.001000	0.050000	0.050000	25.000000	OUTLET
SUB-1382	0.100000	0.001000	0.050000	0.050000	25.000000	OUTLET
SUB-1384	0.100000	0.001000	0.050000	0.050000	25.000000	OUTLET
SUB-1386	0.100000	0.001000	0.050000	0.050000	25.000000	OUTLET
SUB-1388	0.100000	0.001000	0.050000	0.050000	25.000000	OUTLET
SUB-1390	0.100000	0.001000	0.050000	0.050000	25.000000	OUTLET
SUB-1392	0.100000	0.001000	0.050000	0.050000	25.000000	OUTLET
SUB-1394	0.100000	0.001000	0.050000	0.050000	25.000000	OUTLET
SUB-1396	0.100000	0.001000	0.050000	0.050000	25.000000	OUTLET
SUB-1398	0.100000	0.001000	0.050000	0.050000	25.000000	OUTLET
SUB-1400	0.100000	0.001000	0.050000	0.050000	25.000000	OUTLET
SUB-1402	0.100000	0.001000	0.050000	0.050000	25.000000	OUTLET
SUB-1404	0.100000	0.001000	0.050000	0.050000	25.000000	OUTLET
SUB-1406	0.100000	0.001000	0.050000	0.050000	25.000000	OUTLET
SUB-1408	0.100000	0.001000	0.050000	0.050000	25.000000	OUTLET
SUB-1410	0.100000	0.001000	0.050000	0.050000	25.000000	OUTLET
SUB-1412	0.100000	0.001000	0.050000	0.050000	25.000000	OUTLET
SUB-1414	0.100000	0.001000	0.050000	0.050000	25.000000	OUTLET
SUB-1416	0.100000	0.001000	0.050000	0.050000	25.000000	OUTLET
SUB-1418	0.100000	0.001000	0.050000	0.050000	25.000000	OUTLET
SUB-1420	0.100000	0.001000	0.050000	0.050000	25.000000	OUTLET
SUB-1422	0.100000	0.001000	0.050000	0.050000	25.000000	OUTLET
SUB-1424	0.100000	0.001000	0.050000	0.050000	25.000000	OUTLET
SUB-1426	0.100000	0.001000	0.050000	0.050000	25.000000	OUTLET
SUB-1428	0.100000	0.001000	0.050000	0.050000	25.000000	OUTLET
SUB-1430	0.100000	0.001000	0.050000	0.050000	25.000000	OUTLET
SUB-1432	0.100000	0.001000	0.050000	0.050000	25.000000	OUTLET
SUB-1434	0.100000	0.001000	0.050000	0.050000	25.000000	OUTLET
SUB-1436	0.100000	0.001000	0.050000	0.050000	25.000000	OUTLET
SUB-1438	0.100000	0.001000	0.050000	0.050000	25.000000	OUTLET
SUB-1440	0.100000	0.001000	0.050000	0.050000	25.000000	OUTLET
SUB-1442	0.100000	0.001000	0.050000	0.050000	25.000000	OUTLET
SUB-1444	0.100000	0.001000	0.050000	0.050000	25.000000	OUTLET
SUB-1446	0.100000	0.001000	0.050000	0.050000	25.000000	OUTLET
SUB-1448	0.100000	0.001000	0.050000	0.050000	25.000000	OUTLET
SUB-1450	0.100000	0.001000	0.050000	0.050000	25.000000	OUTLET
SUB-1452	0.100000	0.001000	0.050000	0.050000	25.000000	OUTLET
SUB-1454	0.100000	0.001000	0.050000	0.050000	25.000000	OUTLET
SUB-1456	0.100000	0.001000	0.050000	0.050000	25.000000	OUTLET
SUB-1458	0.100000	0.001000	0.050000	0.050000	25.000000	OUTLET
SUB-1460	0.100000	0.001000	0.050000	0.050000	25.000000	OUTLET
SUB-1462	0.100000	0.001000	0.050000	0.050000	25.000000	OUTLET
SUB-1464	0.100000	0.001000	0.050000	0.050000	25.000000	OUTLET
SUB-1466	0.100000	0.001000	0.050000	0.050000	25.000000	OUTLET
SUB-1468	0.100000	0.001000	0.050000	0.050000	25.000000	OUTLET
SUB-1470	0.100000	0.001000	0.050000	0.050000	25.000000	OUTLET
SUB-1472	0.100000	0.001000	0.050000	0.050000	25.000000	OUTLET
SUB-1474	0.100000	0.001000	0.050000	0.050000	25.000000	OUTLET
SUB-1476	0.100000	0.001000	0.050000	0.050000	25.000000	OUTLET
SUB-1478	0.100000	0.001000	0.050000	0.050000	25.000000	OUTLET
SUB-1480	0.100000	0.001000	0.050000	0.050000	25.000000	OUTLET
SUB-1482	0.100000	0.001000	0.050000	0.050000	25.000000	OUTLET
SUB-1484	0.100000	0.001000	0.050000	0.050000	25.000000	OUTLET
SUB-1486	0.100000	0.001000	0.050000	0.050000	25.000000	OUTLET
SUB-1488	0.100000	0.001000	0.050000	0.050000	25.000000	OUTLET
SUB-1490	0.100000	0.001000	0.050000	0.050000	25.000000	OUTLET
SUB-1492	0.100000	0.001000	0.050000	0.050000	25.000000	OUTLET
SUB-1494	0.100000	0.001000	0.050000	0.050000	25.000000	OUTLET
SUB-1496	0.100000	0.001000	0.050000	0.050000	25.000000	OUTLET
SUB-1498	0.100000	0.001000	0.050000	0.050000	25.000000	OUTLET
SUB-1500	0.100000	0.001000	0.050000	0.050000	25.000000	OUTLET
SUB-1502	0.100000	0.001000	0.050000	0.050000	25.000000	OUTLET
SUB-1504	0.100000	0.001000	0.050000	0.050000	25.000000	OUTLET
SUB-1506	0.100000	0.001000	0.050000	0.050000	25.000000	OUTLET
SUB-1508	0.100000	0.001000	0.050000	0.050000	25.000000	OUTLET
SUB-1510	0.100000	0.001000	0.050000	0.050000	25.000000	OUTLET
SUB-1512	0.100000	0.001000	0.050000	0.050000	25.000000	OUTLET
SUB-1514	0.100000	0.001000	0.050000	0.050000	25.000000	OUTLET
SUB-1516	0.100000	0.001000	0.050000	0.050000	25.000000	OUTLET
SUB-1518	0.100000	0.001000	0.050000	0.050000	25.000000	OUTLET
SUB-1520	0.100000	0.001000	0.050000	0.050000	25.000000	OUTLET
SUB-1522	0.100000	0.001000	0.050000	0.050000	25.000000	OUTLET
SUB-1524	0.100000	0.001000	0.050000	0.050000	25.000000	OUTLET
SUB-1526	0.100000	0.001000	0.050000	0.050000	25.000000	OUTLET

[INFILTRATION]
SUB-1254	88.100000	0.500000	75.000000
SUB-1300	88.100000	0.500000	75.000000
SUB-1308	84.470000	0.500000	75.000000
SUB-1348	90.800000	0.500000	75.000000
SUB-1460	84.200000	0.500000	75.000000
SUB-1524	88.800000	0.500000	75.000000
SUB-1526	95.700000	0.500000	75.000000

[AQUIFERS]

[GROUNDWATER]

[SNOWPACKS]

[JUNCTIONS]
; N1.10.0A
N1.10.0A	4265.000000	5.000000	0.000000	0.000000	0.000000
; N1.10.10
N1.10.10	4254.800000	2.200000	0.000000	0.000000	0.000000
; N1.10.20
N1.10.20	4244.700000	4.300000	0.000000	0.000000	0.000000
; N1.10.30A
N1.10.30A	4238.000000	4.000000	0.000000	0.000000	0.000000
; N1.10.32
N1.10.32	4228.000000	8.000000	0.000000	0.000000	0.000000
; N1.10.35
N1.10.35	4222.000000	10.000000	0.000000	0.000000	0.000000
; N1.10.37
N1.10.37	4231.540000	5.460000	0.000000	0.000000	0.000000
; N1.10.40A
N1.10.40A	4220.000000	10.000000	0.000000	0.000000	0.000000
; N1.10.40B
N1.10.40B	4217.000000	9.000000	0.000000	0.000000	0.000000
; N1.10.5
N1.10.5	4257.900000	4.100000	0.000000	0.000000	0.000000
; N1.12.0