[TITLE]

[OPTIONS]
FLOW_UNITS          	CMS
INFILTRATION        	HORTON
FLOW_ROUTING        	DYNWAVE
START_DATE          	03/03/2014
START_TIME          	00:00:00
REPORT_START_DATE   	03/03/2014
REPORT_START_TIME   	00:00:00
END_DATE            	03/04/2014
END_TIME            	00:00:00
SWEEP_START         	01/01
SWEEP_END           	12/31
DRY_DAYS            	0
REPORT_STEP         	00:15:00
WET_STEP            	00:05:00
DRY_STEP            	01:00:00
ROUTING_STEP        	0:00:10 
ALLOW_PONDING       	YES
INERTIAL_DAMPING    	NONE
VARIABLE_STEP       	0.75
LENGTHENING_STEP    	1
MIN_SURFAREA        	0
NORMAL_FLOW_LIMITED 	BOTH
SKIP_STEADY_STATE   	NO
FORCE_MAIN_EQUATION 	H-W
LINK_OFFSETS        	DEPTH
MIN_SLOPE           	0

[EVAPORATION]
;;Type      	Parameters
;;----------	----------
CONSTANT    	0.0
DRY_ONLY     NO

[RAINGAGES]
;;              	Rain     	Time  	Snow  	Data      
;;Name          	Type     	Intrvl	Catch 	Source    
;;--------------	---------	------	------	----------
2yearstorm      	INTENSITY	0:05  	1.0   	TIMESERIES	2yearstorm      
20yearstorm     	INTENSITY	0:05  	1.0   	TIMESERIES	20yearstorm     

[SUBCATCHMENTS]
;;              	                	                	Total   	Pcnt.   	        	Pcnt.   	Curb    	Snow    
;;Name          	Raingage        	Outlet          	Area    	Imperv  	Width   	Slope   	Length  	Pack    
;;--------------	----------------	----------------	--------	--------	--------	--------	--------	--------
S1              	20yearstorm     	J20             	1.596   	75      	62.01   	2.036   	0       	                
S2              	20yearstorm     	J21             	0.882   	75      	35.28   	1.738   	0       	                
S3              	20yearstorm     	J38             	2.251   	75      	105.7   	1.811   	0       	                
S4              	20yearstorm     	j4              	1.025   	75      	45.12   	1.676   	0       	                
S5              	20yearstorm     	J24             	1.236   	75      	70.37   	1.829   	0       	                
S11             	20yearstorm     	J25             	0.626   	75      	40.685  	1.627   	0       	                
S6              	20yearstorm     	J26             	1.316   	75      	44.21   	1.530   	0       	                
S7              	20yearstorm     	J29             	0.924   	75      	38.56   	1.520   	0       	                
S12             	20yearstorm     	J28             	0.751   	75      	40.685  	1.492   	0       	                
S8              	20yearstorm     	J32             	1.005   	75      	40.37   	1.510   	0       	                
S13             	20yearstorm     	J31             	0.721   	75      	42.62   	1.772   	0       	                
S14             	20yearstorm     	J34             	0.941   	75      	52.19   	1.905   	0       	                
S9              	20yearstorm     	J35             	0.929   	75      	47.68   	1.819   	0       	                
S10             	20yearstorm     	J37             	2.374   	75      	99.95   	2.074   	0       	                
S15             	20yearstorm     	J1              	3.91    	25      	66      	2.03    	0       	                

[SUBAREAS]
;;Subcatchment  	N-Imperv  	N-Perv    	S-Imperv  	S-Perv    	PctZero   	RouteTo   	PctRouted 
;;--------------	----------	----------	----------	----------	----------	----------	----------
S1              	0.02      	0.2       	0.10      	0.25      	25        	OUTLET    
S2              	0.02      	0.2       	0.10      	0.25      	25        	OUTLET    
S3              	0.02      	0.2       	0.10      	0.25      	25        	OUTLET    
S4              	0.02      	0.2       	0.10      	0.25      	25        	OUTLET    
S5              	0.02      	0.2       	0.10      	0.25      	25        	OUTLET    
S11             	0.02      	0.2       	0.10      	0.25      	25        	OUTLET    
S6              	0.02      	0.2       	0.10      	0.25      	25        	OUTLET    
S7              	0.02      	0.2       	0.10      	0.25      	25        	OUTLET    
S12             	0.02      	0.2       	0.10      	0.25      	25        	OUTLET    
S8              	0.02      	0.2       	0.10      	0.25      	25        	OUTLET    
S13             	0.02      	0.2       	0.10      	0.25      	25        	OUTLET    
S14             	0.02      	0.2       	0.10      	0.25      	25        	OUTLET    
S9              	0.02      	0.2       	0.10      	0.25      	25        	OUTLET    
S10             	0.02      	0.2       	0.10      	0.25      	25        	OUTLET    
S15             	0.02      	0.2       	0.10      	0.25      	25        	OUTLET    

[INFILTRATION]
;;Subcatchment  	MaxRate   	MinRate   	Decay     	DryTime   	MaxInfil  
;;--------------	----------	----------	----------	----------	----------
S1              	75        	25        	4         	7         	0         
S2              	75        	25        	4         	7         	0         
S3              	75        	25        	4         	7         	0         
S4              	75        	25        	4         	7         	0         
S5              	75        	25        	4         	7         	0         
S11             	75        	25        	4         	7         	0         
S6              	75        	25        	4         	7         	0         
S7              	75        	25        	4         	7         	0         
S12             	75        	25        	4         	7         	0         
S8              	75        	25        	4         	7         	0         
S13             	75        	25        	4         	7         	0         
S14             	75        	25        	4         	7         	0         
S9              	75        	25        	4         	7         	0         
S10             	75        	25        	4         	7         	0         
S15             	75        	25        	4         	7         	0         

[JUNCTIONS]
;;              	Invert    	Max.      	Init.     	Surcharge 	Ponded    
;;Name          	Elev.     	Depth     	Depth     	Depth     	Area      
;;--------------	----------	----------	----------	----------	----------
J1              	1296.5    	1.78      	0         	0         	0         
J2              	1298.4    	2.18      	0         	0         	0         
J3              	1299.350  	2.2       	0         	0         	0         
J4              	1302.788  	1.6       	0         	0         	0         
J6              	1301.173  	1.8       	0         	0         	0         
J8              	1302.050  	2         	0         	0         	0         
J10             	1303.072  	1.6       	0         	0         	0         
J18             	1303.442  	1.6       	0         	0         	0         
J12             	1304.016  	1.6       	0         	0         	0         
J14             	1305.627  	1.6       	0         	0         	0         
J19             	1304.336  	1.6       	0         	0         	0         
J13             	1305.876  	1.6       	0         	0         	0         
J11             	1305.315  	1.6       	0         	0         	0         
J9              	1304.693  	1.6       	0         	0         	0         
J7              	1304.562  	1.6       	0         	0         	0         
J5              	1303.124  	1.6       	0         	0         	0         
J17             	1302.722  	1.6       	0         	0         	0         
J16             	1301.792  	1.6       	0         	0         	0         

[OUTFALLS]
;;              	Invert    	Outfall   	Stage/Table     	Tide
;;Name          	Elev.     	Type      	Time Series     	Gate
;;--------------	----------	----------	----------------	----
Out1            	1293.5    	FREE      	                	NO

[DIVIDERS]
;;              	Invert    	Diverted        	Divider   
;;Name          	Elev.     	Link            	Type      	Parameters
;;--------------	----------	----------------	----------	----------
J20             	1298.28   	S44             	OVERFLOW  	0         	0         	0         	0         
J21             	1300.58   	S43             	OVERFLOW  	0         	0         	0         	0         
J22             	1301.451  	S42             	OVERFLOW  	0         	0         	0         	0         
J23             	1304.388  	S40             	OVERFLOW  	0         	0         	0         	0         
J24             	1304.724  	S41             	OVERFLOW  	0         	0         	0         	0         
J25             	1306.162  	S53             	OVERFLOW  	0         	0         	0         	0         
J26             	1303.392  	S54             	OVERFLOW  	0         	0         	0         	0         
J27             	1302.973  	S45             	OVERFLOW  	0         	0         	0         	0         
J30             	1304.05   	S46             	OVERFLOW  	0         	0         	0         	0         
J33             	1304.676  	S47             	OVERFLOW  	0         	0         	0         	0         
J36             	1305.616  	S48             	OVERFLOW  	0         	0         	0         	0         
J37             	1307.227  	S49             	OVERFLOW  	0         	0         	0         	0         
J34             	1307.476  	S50             	OVERFLOW  	0         	0         	0         	0         
J35             	1305.936  	S57             	OVERFLOW  	0         	0         	0         	0         
J31             	1306.915  	S51             	OVERFLOW  	0         	0         	0         	0         
J32             	1305.042  	S56             	OVERFLOW  	0         	0         	0         	0         
J28             	1306.293  	S52             	OVERFLOW  	0         	0         	0         	0         
J29             	1304.322  	S39             	CUTOFF    	0         	0         	0         	0         	0         
J38             	1301.551  	S60             	OVERFLOW  	0         	0         	0         	0         
J15             	1295      	C15             	OVERFLOW  	0         	0         	0         	0         

[STORAGE]
;;              	Invert  	Max.    	Init.   	Storage   	Curve   	        	        	Ponded  	Evap.   
;;Name          	Elev.   	Depth   	Depth   	Curve     	Params  	        	        	Area    	Frac.   	Infiltration Parameters
;;--------------	--------	--------	--------	----------	--------	--------	--------	--------	--------	-----------------------
Pond1           	1295.1  	2       	0       	FUNCTIONAL	1500    	1       	700     	0       	0       

[CONDUITS]
;;              	Inlet           	Outlet          	          	Manning   	Inlet     	Outlet    	Init.     	Max.      
;;Name          	Node            	Node            	Length    	N         	Offset    	Offset    	Flow      	Flow      
;;--------------	----------------	----------------	----------	----------	----------	----------	----------	----------
P1              	J5              	J4              	19.468    	0.01      	0         	0         	0         	0         
P2              	J4              	J3              	200.282   	0.01      	0         	0         	0         	0         
P3              	J3              	J2              	57.30     	0.01      	0         	0         	0         	0         
P4              	J2              	J1              	125.280   	0.01      	0         	0         	0         	0         
P5              	J14             	J12             	87.239    	0.01      	0         	0         	0         	0         
P6              	J12             	J10             	71.870    	0.01      	0         	0         	0         	0         
P7              	J10             	J8              	68.109    	0.01      	0         	0         	0         	0         
P8              	J8              	J6              	60.103    	0.01      	0         	0         	0         	0         
P9              	J6              	J3              	115.206   	0.01      	0         	0         	0         	0         
P14             	J1              	Pond1           	59.427    	0.01      	0         	0.4       	0         	0         
C15             	J15             	Out1            	50        	0.01      	0         	0         	0         	0         
P19             	J7              	J16             	197.437   	0.01      	0         	0         	0         	0         
P20             	J16             	J6              	21.996    	0.01      	0         	0         	0         	0         
P21             	J9              	J17             	168.317   	0.01      	0         	0         	0         	0         
P22             	J17             	J8              	17.685    	0.01      	0         	0         	0         	0         
P23             	J11             	J18             	155.369   	0.01      	0         	0         	0         	0         
P24             	J18             	J10             	12.350    	0.01      	0         	0         	0         	0         
P25             	J13             	J19             	107.287   	0.01      	0         	0         	0         	0         
P26             	J19             	J12             	16.539    	0.01      	0         	0         	0         	0         
S10             	J24             	J23             	19.468    	0.01      	0         	0         	0         	0.319     
S12             	J22             	J21             	57.30     	0.01      	0         	0         	0         	0.358     
S13             	J21             	J20             	125.280   	0.01      	0         	0         	0         	0.358     
S27             	J25             	J26             	197.437   	0.01      	0         	0         	0         	0.360     
S28             	J26             	J27             	50        	0.01      	0         	0         	0         	0.360     
S29             	J27             	J22             	115.206   	0.01      	0         	0         	0         	0.337     
S30             	J30             	J27             	60.103    	0.01      	0         	0         	0         	0.337     
S31             	J33             	J30             	68.109    	0.01      	0         	0         	0         	0.337     
S32             	J37             	J36             	87.239    	0.01      	0         	0         	0         	0.337     
S33             	J36             	J33             	71.870    	0.01      	0         	0         	0         	0.337     
S34             	J31             	J32             	155.369   	0.01      	0         	0         	0         	0.345     
S35             	J32             	J33             	12.350    	0.01      	0         	0         	0         	0.345     
S36             	J34             	J35             	107.287   	0.01      	0         	0         	0         	0.359     
S37             	J35             	J36             	16.539    	0.01      	0         	0         	0         	0.359     
S38             	J28             	J29             	168.317   	0.01      	0         	0         	0         	0.359     
S39             	J29             	J30             	17.685    	0.01      	0         	0         	0         	0.359     
S40             	J23             	J4              	5         	0.01      	0         	1.47      	0         	0         
S41             	J24             	J5              	5         	0.01      	0         	1.47      	0         	0         
S42             	J22             	J3              	5         	0.01      	0         	2.07      	0         	0         
S43             	J21             	J2              	5         	0.01      	0         	2.06      	0         	0         
S44             	J20             	J1              	5         	0.01      	0         	1.65      	0         	0         
S45             	J27             	J6              	5         	0.01      	0         	1.67      	0         	0         
S46             	J30             	J8              	5         	0.01      	0         	1.78      	0         	0         
S47             	J33             	J10             	5         	0.01      	0         	1.45      	0         	0         
S48             	J36             	J12             	5         	0.01      	0         	1.45      	0         	0         
S49             	J37             	J14             	5         	0.01      	0         	1.45      	0         	0         
S50             	J34             	J13             	5         	0.01      	0         	1.47      	0         	0         
S51             	J31             	J11             	5         	0.01      	0         	1.47      	0         	0         
S52             	J28             	J9              	5         	0.01      	0         	1.47      	0         	0         
S53             	J25             	J7              	5         	0.01      	0         	1.47      	0         	0         
S54             	J26             	J16             	5         	0.01      	0         	1.47      	0         	0         
S56             	J32             	J18             	5         	0.01      	0         	1.47      	0         	0         
S57             	J35             	J19             	5         	0.01      	0         	1.47      	0         	0         
S59             	J23             	J38             	200.282   	0.01      	0         	0         	0         	0.358     
S60             	J38             	J22             	5         	0.01      	0         	0         	0         	0.358     

[ORIFICES]
;;              	Inlet           	Outlet          	Orifice     	Crest     	Disch.    	Flap	Open/Close
;;Name          	Node            	Node            	Type        	Height    	Coeff.    	Gate	Time      
;;--------------	----------------	----------------	------------	----------	----------	----	----------
C17             	Pond1           	J15             	SIDE        	0         	0.65      	NO  	0         
C18             	Pond1           	J15             	BOTTOM      	1.750     	0.65      	NO  	0         

[WEIRS]
;;              	Inlet           	Outlet          	Weir        	Crest     	Disch.    	Flap	End     	End       
;;Name          	Node            	Node            	Type        	Height    	Coeff.    	Gate	Con.    	Coeff.    
;;--------------	----------------	----------------	------------	----------	----------	----	--------	----------
C16             	Pond1           	J15             	TRANSVERSE  	2.05      	3.33      	NO  	0       	0         

[XSECTIONS]
;;Link          	Shape       	Geom1           	Geom2     	Geom3     	Geom4     	Barrels   
;;--------------	------------	----------------	----------	----------	----------	----------
P1              	CIRCULAR    	0.450           	0         	0         	0         	1         	          
P2              	CIRCULAR    	0.600           	0         	0         	0         	1         	          
P3              	CIRCULAR    	0.750           	0         	0         	0         	1         	          
P4              	CIRCULAR    	0.900           	0         	0         	0         	1         	          
P5              	CIRCULAR    	0.450           	0         	0         	0         	1         	          
P6              	CIRCULAR    	0.6             	0         	0         	0         	1         	          
P7              	CIRCULAR    	0.600           	0         	0         	0         	1         	          
P8              	CIRCULAR    	0.750           	0         	0         	0         	1         	          
P9              	CIRCULAR    	0.750           	0         	0         	0         	1         	          
P14             	CIRCULAR    	0.9             	0         	0         	0         	1         	          
C15             	CIRCULAR    	0.450           	0         	0         	0         	1         	          
P19             	CIRCULAR    	0.450           	0         	0         	0         	1         	          
P20             	CIRCULAR    	0.600           	0         	0         	0         	1         	          
P21             	CIRCULAR    	0.450           	0         	0         	0         	1         	          
P22             	CIRCULAR    	0.600           	0         	0         	0         	1         	          
P23             	CIRCULAR    	0.450           	0         	0         	0         	1         	          
P24             	CIRCULAR    	0.600           	0         	0         	0         	1         	          
P25             	CIRCULAR    	0.450           	0         	0         	0         	1         	          
P26             	CIRCULAR    	0.600           	0         	0         	0         	1         	          
S10             	IRREGULAR   	5.5m            	0         	0         	0         	1         	          
S12             	IRREGULAR   	5.5m            	0         	0         	0         	1         	          
S13             	IRREGULAR   	5.5m            	0         	0         	0         	1         	          
S27             	IRREGULAR   	5.5m            	0         	0         	0         	1         	          
S28             	CIRCULAR    	1               	0         	0         	0         	1         	          
S29             	IRREGULAR   	7.4m            	0         	0         	0         	1         	          
S30             	IRREGULAR   	7.4m            	0         	0         	0         	1         	          
S31             	IRREGULAR   	7.4m            	0         	0         	0         	1         	          
S32             	IRREGULAR   	7.4m            	0         	0         	0         	1         	          
S33             	IRREGULAR   	7.4m            	0         	0         	0         	1         	          
S34             	IRREGULAR   	5m              	0         	0         	0         	1         	          
S35             	IRREGULAR   	5m              	0         	0         	0         	1         	          
S36             	IRREGULAR   	5m              	0         	0         	0         	1         	          
S37             	IRREGULAR   	5m              	0         	0         	0         	1         	          
S38             	IRREGULAR   	5m              	0         	0         	0         	1         	          
S39             	IRREGULAR   	5m              	0         	0         	0         	1         	          
S40             	IRREGULAR   	5.5m            	0         	0         	0         	1         	          
S41             	IRREGULAR   	5.5m            	0         	0         	0         	1         	          
S42             	IRREGULAR   	5.5m            	0         	0         	0         	1         	          
S43             	IRREGULAR   	5.5m            	0         	0         	0         	1         	          
S44             	IRREGULAR   	5.5m            	0         	0         	0         	1         	          
S45             	IRREGULAR   	5m              	0         	0         	0         	1         	          
S46             	IRREGULAR   	5m              	0         	0         	0         	1         	          
S47             	IRREGULAR   	7.4m            	0         	0         	0         	1         	          
S48             	IRREGULAR   	7.4m            	0         	0         	0         	1         	          
S49             	IRREGULAR   	7.4m            	0         	0         	0         	1         	          
S50             	IRREGULAR   	5m              	0         	0         	0         	1         	          
S51             	IRREGULAR   	5m              	0         	0         	0         	1         	          
S52             	IRREGULAR   	5m              	0         	0         	0         	1         	          
S53             	IRREGULAR   	5m              	0         	0         	0         	1         	          
S54             	IRREGULAR   	5m              	0         	0         	0         	1         	          
S56             	IRREGULAR   	5m              	0         	0         	0         	1         	          
S57             	IRREGULAR   	5m              	0         	0         	0         	1         	          
S59             	IRREGULAR   	5.5m            	0         	0         	0         	1         	          
S60             	IRREGULAR   	5.5m            	0         	0         	0         	1         	          
C17             	RECT_CLOSED 	0.300           	0.300     	0         	0
C18             	RECT_CLOSED 	1.2             	1.2       	0         	0
C16             	RECT_OPEN   	0.15            	2         	1         	1         

[TRANSECTS]

;5m
NC	0.025   	0.015   	0.025   
X1	5m               	4       	0.0     	0.0     	0.0     	0.0     	0.0     	0.0     	0.0     
GR	0.100   	-5      	0       	0       	0.02    	0.002   	0.130   	0.300   

;5.5m
NC	0.025   	0.015   	0.025   
X1	5.5m             	4       	0.0     	0.0     	0.0     	0.0     	0.0     	0.0     	0.0     
GR	0.100   	-5.5    	0       	0       	0.02    	0.002   	0.130   	0.300   

;7.4m
NC	0.025   	0.015   	0.025   
X1	7.4m             	4       	0.0     	0.0     	0.0     	0.0     	0.0     	0.0     	0.0     
GR	0.148   	-7.4    	0       	0       	0.02    	0.002   	0.130   	0.300   

[LOSSES]
;;Link          	Inlet     	Outlet    	Average   	Flap Gate 
;;--------------	----------	----------	----------	----------

[TIMESERIES]
;;Name          	Date      	Time      	Value     
;;--------------	----------	----------	----------
2yearstorm      	          	00:00     	0.627     
2yearstorm      	          	00:05     	0.627     
2yearstorm      	          	00:10     	0.627     
2yearstorm      	          	00:15     	0.627     
2yearstorm      	          	00:20     	0.627     
2yearstorm      	          	00:25     	0.627     
2yearstorm      	          	00:30     	0.627     
2yearstorm      	          	00:35     	0.627     
2yearstorm      	          	00:40     	0.627     
2yearstorm      	          	00:45     	0.627     
2yearstorm      	          	00:50     	0.627     
2yearstorm      	          	00:55     	0.627     
2yearstorm      	          	01:00     	0.627     
2yearstorm      	          	01:05     	0.627     
2yearstorm      	          	01:10     	0.627     
2yearstorm      	          	01:15     	0.627     
2yearstorm      	          	01:20     	0.684     
2yearstorm      	          	01:25     	0.684     
2yearstorm      	          	01:30     	0.684     
2yearstorm      	          	01:35     	0.684     
2yearstorm      	          	01:40     	0.684     
2yearstorm      	          	01:45     	0.684     
2yearstorm      	          	01:50     	0.684     
2yearstorm      	          	01:55     	0.684     
2yearstorm      	          	02:00     	0.684     
2yearstorm      	          	02:05     	0.684     
2yearstorm      	          	02:10     	0.684     
2yearstorm      	          	02:15     	0.684     
2yearstorm      	          	02:20     	0.684     
2yearstorm      	          	02:25     	0.741     
2yearstorm      	          	02:30     	0.741     
2yearstorm      	          	02:35     	0.741     
2yearstorm      	          	02:40     	0.741     
2yearstorm      	          	02:45     	0.741     
2yearstorm      	          	02:50     	0.741     
2yearstorm      	          	02:55     	0.741     
2yearstorm      	          	03:00     	0.741     
2yearstorm      	          	03:05     	0.741     
2yearstorm      	          	03:10     	0.741     
2yearstorm      	          	03:15     	0.741     
2yearstorm      	          	03:20     	0.798     
2yearstorm      	          	03:25     	0.798     
2yearstorm      	          	03:30     	0.798     
2yearstorm      	          	03:35     	0.798     
2yearstorm      	          	03:40     	0.798     
2yearstorm      	          	03:45     	0.798     
2yearstorm      	          	03:50     	0.798     
2yearstorm      	          	03:55     	0.798     
2yearstorm      	          	04:00     	0.798     
2yearstorm      	          	04:05     	0.798     
2yearstorm      	          	04:10     	0.855     
2yearstorm      	          	04:15     	0.855     
2yearstorm      	          	04:20     	0.855     
2yearstorm      	          	04:25     	0.855     
2yearstorm      	          	04:30     	0.855     
2yearstorm      	          	04:35     	0.855     
2yearstorm      	          	04:40     	0.855     
2yearstorm      	          	04:45     	0.855     
2yearstorm      	          	04:50     	0.912     
2yearstorm      	          	04:55     	0.912     
2yearstorm      	          	05:00     	0.912     
2yearstorm      	          	05:05     	0.912     
2yearstorm      	          	05:10     	0.912     
2yearstorm      	          	05:15     	0.912     
2yearstorm      	          	05:20     	0.969     
2yearstorm      	          	05:25     	0.969     
2yearstorm      	          	05:30     	0.969     
2yearstorm      	          	05:35     	0.969     
2yearstorm      	          	05:40     	0.969     
2yearstorm      	          	05:45     	0.969     
2yearstorm      	          	05:50     	1.026     
2yearstorm      	          	05:55     	1.026     
2yearstorm      	          	06:00     	1.026     
2yearstorm      	          	06:05     	1.026     
2yearstorm      	          	06:10     	1.026     
2yearstorm      	          	06:15     	1.026     
2yearstorm      	          	06:20     	1.083     
2yearstorm      	          	06:25     	1.083     
2yearstorm      	          	06:30     	1.083     
2yearstorm      	          	06:35     	1.083     
2yearstorm      	          	06:40     	1.14      
2yearstorm      	          	06:45     	1.14      
2yearstorm      	          	06:50     	1.14      
2yearstorm      	          	06:55     	1.14      
2yearstorm      	          	07:00     	1.197     
2yearstorm      	          	07:05     	1.197     
2yearstorm      	          	07:10     	1.197     
2yearstorm      	          	07:15     	1.197     
2yearstorm      	          	07:20     	1.254     
2yearstorm      	          	07:25     	1.254     
2yearstorm      	          	07:30     	1.254     
2yearstorm      	          	07:35     	1.311     
2yearstorm      	          	07:40     	1.311     
2yearstorm      	          	07:45     	1.311     
2yearstorm      	          	07:50     	1.368     
2yearstorm      	          	07:55     	1.368     
2yearstorm      	          	08:00     	1.368     
2yearstorm      	          	08:05     	1.425     
2yearstorm      	          	08:10     	1.425     
2yearstorm      	          	08:15     	1.482     
2yearstorm      	          	08:20     	1.482     
2yearstorm      	          	08:25     	1.539     
2yearstorm      	          	08:30     	1.539     
2yearstorm      	          	08:35     	1.596     