[TITLE]

[OPTIONS]
FLOW_UNITS           CMS
INFILTRATION         GREEN_AMPT
FLOW_ROUTING         DYNWAVE
START_DATE           01/01/2004
START_TIME           00:00:00
REPORT_START_DATE    01/01/2004
REPORT_START_TIME    01:00:00
END_DATE             12/31/2004
END_TIME             00:00:00
SWEEP_START          01/01
SWEEP_END            12/31
DRY_DAYS             3
REPORT_STEP          01:00:00
WET_STEP             00:05:00
DRY_STEP             01:00:00
ROUTING_STEP         0:00:30 
ALLOW_PONDING        YES
INERTIAL_DAMPING     NONE
VARIABLE_STEP        0.75
LENGTHENING_STEP     1
MIN_SURFAREA         0
NORMAL_FLOW_LIMITED  BOTH
SKIP_STEADY_STATE    NO
FORCE_MAIN_EQUATION  H-W
LINK_OFFSETS         DEPTH
MIN_SLOPE            0

[EVAPORATION]
;;Type       Parameters
;;---------- ----------
MONTHLY      0.368  0.376  0.528  0.592  0.664  0.64   0.648  0.648  0.592  0.528  0.4    0.424 

[RAINGAGES]
;;               Rain      Time   Snow   Data      
;;Name           Type      Intrvl Catch  Source    
;;-------------- --------- ------ ------ ----------
G1               VOLUME    24:00  1      FILE       "C:\Users\yzliu\Desktop\zz\data for swmm\peace valley\02\for Swmm INP\rainfall\2298608rain.dat" 2298608    MM   

[SUBCATCHMENTS]
;;                                                 Total    Pcnt.             Pcnt.    Curb     Snow    
;;Name           Raingage         Outlet           Area     Imperv   Width    Slope    Length   Pack    
;;-------------- ---------------- ---------------- -------- -------- -------- -------- -------- --------
1                G1               J2               451.71   10.18    958.12   0.18     0                        
2                G1               J2               526.95   20.31    1294.44  0.37     0                        
3                G1               J4               809.73   20.02    1391.47  0.41     0                        
4                G1               J4               1029.24  20.52    1361.63  0.62     0                        
5                G1               J7               902.07   10.3     1253.44  0.46     0                        
6                G1               J7               443.07   20.21    924      0.53     0                        
7                G1               J11              808.2    20.7     1358.79  0.83     0                        
8                G1               J10              84.69    14.36    458.67   1.58     0                        
9                G1               J17              1536.84  20.55    1734.15  0.39     0                        
10               G1               J10              805.23   20.82    1454.56  0.57     0                        
11               G1               J11              212.04   10.84    731.31   1.59     0                        
12               G1               J13              362.88   20.14    919.68   0.59     0                        
13               G1               J14              41.31    10.82    385.19   1.42     0                        
14               G1               J19              514.71   20.1     1334.99  0.56     0                        
15               G1               J14              30.51    10.17    216.26   1.35     0                        
16               G1               J13              279.9    20.11    758.95   0.5      0                        
17               G1               J27              759.78   20.76    1289.12  0.74     0                        
18               G1               J19              282.87   20.1     702.18   0.4      0                        
19               G1               J21              246.6    10.1     582.38   0.33     0                        
20               G1               J27              455.31   20.17    876.15   0.73     0                        
21               G1               J17              7.83     10.1     173.76   0.46     0                        
22               G1               J25              842.94   20.1     1594.78  0.59     0                        
23               G1               J21              674.64   14.1     1363.71  0.39     0                        
24               G1               J36              518.94   20.1     863.66   0.55     0                        
25               G1               J26              717.75   20.1     1008.82  0.71     0                        
26               G1               J54              895.41   10.02    971.27   0.52     0                        
27               G1               J25              362.52   20.1     885.58   0.45     0                        
28               G1               J34              388.98   20.1     980.97   0.63     0                        
29               G1               J32              675.54   12.01    1427.62  0.45     0                        
30               G1               J32              581.13   16.1     1364.75  0.48     0                        
31               G1               J26              143.91   10.1     504.21   1.14     0                        
32               G1               J43              370.71   18.24    970.66   0.37     0                        
33               G1               J29              371.52   20.1     1019.65  0.48     0                        
34               G1               J40              404.46   10.14    883.34   0.7      0                        
35               G1               J29              277.38   20.1     770.02   0.96     0                        
36               G1               J42              335.79   10.33    995.71   0.47     0                        
37               G1               J42              755.73   20.01    1128.72  0.38     0                        
38               G1               J34              295.92   20.1     856.92   0.44     0                        
39               G1               J36              14.4     10.1     185.95   0.2      0                        
40               G1               J43              289.26   20.09    668.93   0.53     0                        
41               G1               J40              442.62   10.08    967.36   0.8      0                        
42               G1               J37              236.16   20.19    787.22   0.51     0                        
43               G1               J37              52.2     10.1     344.27   0.72     0                        
44               G1               J51              221.67   10.51    712.65   0.58     0                        
45               G1               J52              631.89   10.1     1125.66  0.8      0                        
46               G1               J51              574.11   10.1     1022.02  0.4      0                        
47               G1               J48              550.8    11.59    1410.41  0.64     0                        
48               G1               J47              722.88   10.9     1220.7   0.58     0                        
49               G1               J47              444.6    20.52    635.72   0.43     0                        
50               G1               J48              396.9    11.79    1044.23  0.74     0                        
51               G1               J53              126.72   11.63    530.33   0.53     0                        
52               G1               J59              503.73   10.68    979.13   0.54     0                        
53               G1               J54              264.96   10.1     680.45   0.61     0                        
54               G1               J52              39.87    10.58    321.52   0.6      0                        
55               G1               J53              623.34   12.69    1471.42  1.18     0                        
56               G1               J62              601.2    20.1     891.03   0.33     0                        
57               G1               J63              672.75   10.1     1289.73  0.39     0                        
58               G1               J55              282.69   20.04    712.57   0.39     0                        
59               G1               J55              456.57   10.01    1126.46  0.37     0                        
60               G1               J66              703.53   11.06    1226.6   0.44     0                        
61               G1               J68              471.15   11.94    779.68   0.65     0                        
62               G1               J68              653.58   20.86    1211.62  0.4      0                        
63               G1               J66              276.84   13.75    718.19   0.87     0                        
64               G1               J59              42.66    10.43    358.71   1.02     0                        
65               G1               J73              361.98   10.05    835.7    0.28     0                        
66               G1               J60              56.43    10.24    364.95   0.9      0                        
67               G1               J62              252.54   10.22    696.5    0.52     0                        
68               G1               J60              282.24   10.19    715.14   0.59     0                        
69               G1               J64              11.52    10.1     187.91   0.24     0                        
70               G1               J64              452.16   10.59    1049.14  0.55     0                        
71               G1               J63              170.1    10       520.03   0.28     0                        
72               G1               J85              1124.37  10.69    1611.25  0.93     0                        
73               G1               J87              1713.42  11.05    2621.99  0.59     0                        
74               G1               J71              150.57   10.1     643.53   0.41     0                        
75               G1               J71              481.5    10.37    989.45   0.46     0                        
76               G1               J83              772.02   19.9     960.38   0.86     0                        
77               G1               J77              403.83   13.1     626.96   1        0                        
78               G1               J81              320.13   10.1     704.24   0.73     0                        
79               G1               J77              347.13   16.1     745.33   0.88     0                        
80               G1               J87              253.8    16.93    474.29   1.63     0                        
81               G1               J73              588.6    10.19    921.67   0.31     0                        
82               G1               J81              127.8    10.04    565.97   0.84     0                        
83               G1               J107             1034.64  10.18    1098.58  0.27     0                        
84               G1               J89              563.58   12.27    938.42   1.31     0                        
85               G1               J83              279.18   10.32    560.69   0.85     0                        
86               G1               J89              161.46   11.08    630.39   1.07     0                        
87               G1               J91              352.8    10.01    897.93   0.24     0                        
88               G1               J100             1210.86  10.83    1249.24  1.09     0                        
89               G1               J85              407.25   10.13    760.55   0.47     0                        
90               G1               J93              97.38    10       393.57   0.42     0                        
91               G1               J96              674.1    10.34    1089.44  0.77     0                        
92               G1               J93              365.85   10.34    682.94   0.35     0                        
93               G1               J91              259.47   10.26    733.79   0.3      0                        
94               G1               J130             2042.46  10.64    1691.2   1.16     0                        
95               G1               J136             1346.13  10.12    1431.99  0.29     0                        
96               G1               J100             530.1    14.1     983.1    1.78     0                        
97               G1               J103             633.69   10.15    1025.99  0.41     0                        
98               G1               J96              942.57   12       1042.39  1.36     0                        
99               G1               J98              115.29   10.09    651.06   0.59     0                        
100              G1               J105             1106.1   10.5     884.27   0.3      0                        
101              G1               J98              244.44   12.77    614.39   1.54     0                        
102              G1               J107             351      10.16    990.7    0.44     0                        
103              G1               J120             786.6    14.49    1043.25  0.3      0                        
104              G1               J105             338.76   10.06    731.09   0.37     0                        
105              G1               J102             243.99   10.1     757.39   0.15     0                        
106              G1               J102             15.21    10.1     224.98   0.18     0                        
107              G1               J110             85.14    10.85    445.39   0.43     0                        
108              G1               J103             77.67    10.81    425.93   0.29     0                        
109              G1               J128             886.14   10.01    1221.72  0.36     0                        
110              G1               J120             524.79   10.51    822.78   0.26     0                        
111              G1               J128             715.77   10.16    843.43   0.25     0                        
112              G1               J111             148.68   10.1     616.33   1.97     0                        
113              G1               J114             316.17   11.16    577.18   0.36     0                        
114              G1               J116             201.15   10.12    692.73   1.15     0                        
115              G1               J111             395.55   12.08    802.27   1.53     0                        
116              G1               J116             46.62    10.1     293.06   1.02     0                        
117              G1               J125             382.14   10.83    776.52   1.29     0                        
118              G1               J114             115.38   11.71    554.65   0.77     0                        
119              G1               J110             281.52   10.1     790.87   0.43     0                        
120              G1               J118             69.84    15.1     316.84   1.13     0                        
121              G1               J117             580.32   10.1     1097.74  0.4      0                        
122              G1               J124             464.22   10.09    1102.79  0.82     0                        
123              G1               J122             50.04    10       449.69   0.36     0                        
124              G1               J133             341.82   10.09    527.64   0.55     0                        
125              G1               J117             793.26   10.04    1246.2   0.25     0                        
126              G1               J118             567.45   17.01    903.01   0.62     0                        
127              G1               J145             965.25   10.13    1433.41  0.21     0                        
128              G1               J122             314.1    10.06    669.21   0.16     0                        
129              G1               J129             407.97   14.1     934.03   0.82     0                        
130              G1               J138             582.75   10.1     1035.24  0.15     0                        
131              G1               J129             34.38    10.03    272.26   0.37     0                        
132              G1               J131             195.21   10.1     719.99   0.32     0                        
133              G1               J131             76.68    16.1     390.58   0.33     0                        
134              G1               J125             10.8     10.1     157.55   2.52     0                        
135              G1               J147             747.36   10.05    1303.02  1.1      0                        
136              G1               J130             514.89   14.27    1000.03  1.41     0                        
137              G1               J143             137.7    10.1     578.3    0.27     0                        
138              G1               J143             574.74   13.1     1013.03  0.25     0                        
139              G1               J133             513.72   10.1     1085.97  0.66     0                        
140              G1               J136             306.72   10.05    738.63   0.16     0                        
141              G1               J145             453.15   10.01    1402.34  0.08     0                        
142              G1               J138             257.13   10.08    737.35   0.19     0                        
143              G1               J142             596.7    10.1     986.52   0.26     0                        
144              G1               J153             530.37   11.1     896.13   0.34     0                        
145              G1               J142             131.13   18.1     579.89   0.19     0                        
146              G1               J124             414.18   10.1     565.22   0.81     0                        
147              G1               J157             292.32   10.08    924.95   0.26     0                        
148              G1               J165             1043.28  10.26    1345.48  0.78     0                        
149              G1               J167             838.71   10.11    1107.2   0.36     0                        
150              G1               J147             273.6    11.66    800.72   1.32     0                        
151              G1               J150             43.29    10.31    328.02   1.32     0                        
152              G1               J149             863.55   10.14    1705.25  0.29     0                        
153              G1               J149             908.91   10.07    1743.37  0.28     0                        
154              G1               J151             571.5    10       780.03   0.77     0                        
155              G1               J159             675.45   10.87    1100.62  1.15     0                        
156              G1               J150             2.34     10.1     85.18    1.55     0                        
157              G1               J157             403.47   10.26    933.32   0.32     0                        
158              G1               J188             713.16   10.01    706.5    0.29     0                        
159              G1               J153             658.26   10.05    1488.13  0.5      0                        
160              G1               J167             821.61   10.18    1408.58  0.72     0                        
161              G1               J160             437.58   10       1092.14  0.94     0                        
162              G1               J160             281.43   10.44    437.7    0.78     0                        
163              G1               J151             725.4    10.23    893.76   0.69     0                        
164              G1               J175             934.74   10.23    1333.24  0.4      0                        
165              G1               J185             1291.41  10.11    1528.07  0.9      0                        
166              G1               J178             660.24   10.13    1180.39  0.65     0                        
167              G1               J169             399.96   10.38    765.75   0.95     0                        
168              G1               J165             414.18   10.15    979.62   0.7      0                        
169              G1               J162             370.8    10.1     571.02   0.69     0                        
170              G1               J173             434.34   10       1227.96  0.77     0                        
171              G1               J190             453.42   10.22    705.55   0.45     0                        
172              G1               J169             361.26   10.02    1068.93  0.81     0                        
173              G1               J172             501.3    10.1     1229.55  0.78     0                        
174              G1               J181             795.96   18.1     1104.28  0.78     0                        
175              G1               J172             86.49    10.1     430.54   0.66     0                        
176              G1               J178             418.41   10.19    901.75   0.66     0                        
177              G1               J198             720.27   10.1     1176.58  0.69     0                        
178              G1               J173             234.09   10.02    765.55   0.88     0                        
179              G1               J200             9.99     12.1     32.36    0.94     0                        
180              G1               J183             68.76    10.1     385.17   1.3      0                        
181              G1               J175             261.36   10.67    778.57   0.77     0                        
182              G1               J213             924.93   11.24    1353.2   0.72     0                        
183              G1               J185             33.75    11.81    309.07   0.91     0                        
184              G1               J184             429.75   12.38    770.24   0.98     0                        
185              G1               J181             215.1    12.95    751.76   0.95     0                        
186              G1               J187             326.52   10.26    814.3    0.57     0                        
187              G1               J183             285.66   10.01    679.95   0.74     0                        
188              G1               J184             31.23    10.1     185.92   0.99     0                        
189              G1               J197             549.45   11.1     1146.87  0.82     0                        
190              G1               J194             237.24   12.91    569.46   0.48     0                        
191              G1               J194             315.81   13.1     770.17   0.73     0                        
192              G1               J187             191.34   17.1     395.91   0.56     0                        
193              G1               J196             380.43   15.41    845.51   0.62     0                        
194              G1               J219             1885.77  16.1     2003.55  0.65     0                        
195              G1               J192             218.52   19.51    688.3    1        0                        
196              G1               J192             281.79   18.1     566.17   0.71     0                        
197              G1               J198             225.99   19.1     619.43   0.76     0                        
198              G1               J201             273.87   10.1     617.23   0.73     0                        
199              G1               J217             1092.15  21.1     1275.73  0.73     0                        
200              G1               J222             1007.64  22.16    1312.25  1.22     0                        
201              G1               J213             377.46   13.1     1189.33  0.66     0                        
202              G1               J203             195.66   24.1     528.5    0.93     0                        
203              G1               J203             244.71   25.1     694.98   0.82     0                        
204              G1               J206             12.33    16.1     41.39    0.88     0                        
205              G1               J210             518.04   27.1     1259.81  0.81     0                        
206              G1               J204             449.37   28.1     1126.26  1.05     0                        
207              G1               J217             631.26   19.1     1436.42  0.88     0                        
208              G1               J212             555.39   30.1     1344.83  0.82     0                        
209              G1               J206             292.05   11.1     898.07   0.63     0                        
210              G1               J204             269.28   32.1     717.08   1        0                        
211              G1               J207             82.8     13.1     547.24   0.89     0                        
212              G1               J208             60.66    34.1     478.76   0.93     0                        
213              G1               J208             236.07   10.01    472.86   0.89     0                        
214              G1               J225             252      15.1     816.63   1.05     0                        
215              G1               J212             305.64   23.1     758.7    0.93     0                        
216              G1               J197             600.93   10.1     915.83   0.83     0                        
217              G1               J255             1219.77  10.11    1197.65  0.93     0                        
218              G1               J224             74.34    10.1     408.39   0.97     0                        
219              G1               J229             404.82   10.1     744.51   0.75     0                        
220              G1               J224             362.07   10       836.08   0.9      0                        
221              G1               J315             2162.43  15.89    1308.3   2        0                        
222              G1               J234             455.13   19.1     848.65   1.04     0                        
223              G1               J220             29.07    10.1     336.3    0.55     0                        
224              G1               J219             313.38   10       835.42   0.66     0                        
225              G1               J222             357.12   10.79    965.92   1.32     0                        
226              G1               J239             619.83   10.06    1254.76  0.81     0                        
227              G1               J245             519.75   10.87    1043.65  1.03     0                        
228              G1               J232             197.73   10.1     760.3    0.85     0                        
229              G1               J225             315.63   10.13    563.02   0.92     0                        
230              G1               J232             248.67   12.16    767.01   1.12     0                        
231              G1               J239             285.84   10.19    637.95   0.83     0                        
232              G1               J228             367.2    10.22    799.49   0.67     0                        
233              G1               J228             210.96   15.25    568.09   0.82     0                        
234              G1               J236             282.42   10.28    927.32   0.97     0                        
235              G1               J249             423.63   18.31    682.85   0.89     0                        
236              G1               J235             135.18   10.34    621.72   1.98     0                        
237              G1               J235             19.53    13.37    191.35   1.4      0                        
238              G1               J234             283.5    10.4     796.87   0.96     0                        
239              G1               J241             48.78    10.43    386.3    2.43     0                        
240              G1               J304             1591.65  12       1133.64  1.55     0                        
241              G1               J252             618.3    10.1     827.52   1.14     0                        
242              G1               J242             168.66   10.43    590.12   0.83     0                        
243              G1               J241             309.69   24.21    656.49   3.28     0                        
244              G1               J289             1136.52  11.04    1050.04  1.32     0                        
245              G1               J242             419.85   10.13    563.67   0.85     0                        
246              G1               J243             26.91    10.1     279.82   2.27     0                        
247              G1               J243             473.22   19.92    781.79   1.94     0                        
248              G1               J249             455.67   10       942.98   0.75     0                        
249              G1               J267             680.67   15.38    1066.14  2.49     0                        
250              G1               J245             310.5    14.54    874.07   2.19     0                        
251              G1               J259             896.67   12.7     1710.57  1.58     0                        