[TITLE]
 Northeast Industrial District Phase 3 Watershed Study

[OPTIONS]
FLOW_UNITS          	CFS
INFILTRATION        	HORTON
FLOW_ROUTING        	DYNWAVE
START_DATE          	01/01/2004
START_TIME          	00:00:00
REPORT_START_DATE   	01/01/2004
REPORT_START_TIME   	00:00:00
END_DATE            	01/02/2004
END_TIME            	03:00:00
SWEEP_START         	01/01
SWEEP_END           	12/31
DRY_DAYS            	0
REPORT_STEP         	00:04:00
WET_STEP            	00:01:00
DRY_STEP            	00:01:00
ROUTING_STEP        	0:00:10 
ALLOW_PONDING       	NO
INERTIAL_DAMPING    	PARTIAL
VARIABLE_STEP       	0.75
LENGTHENING_STEP    	0
MIN_SURFAREA        	0
NORMAL_FLOW_LIMITED 	FROUDE
SKIP_STEADY_STATE   	NO
FORCE_MAIN_EQUATION 	H-W
LINK_OFFSETS        	DEPTH
MIN_SLOPE           	0

[EVAPORATION]
;;Type      	Parameters
;;----------	----------
CONSTANT    	0.0
DRY_ONLY     NO

[RAINGAGES]
;;              	Rain     	Time  	Snow  	Data      
;;Name          	Type     	Intrvl	Catch 	Source    
;;--------------	---------	------	------	----------
SCS~Type~II     	CUMULATIVE	0.48972	1.0   	TIMESERIES	RN#1            

[SUBCATCHMENTS]
;;              	                	                	Total   	Pcnt.   	        	Pcnt.   	Curb    	Snow    
;;Name          	Raingage        	Outlet          	Area    	Imperv  	Width   	Slope   	Length  	Pack    
;;--------------	----------------	----------------	--------	--------	--------	--------	--------	--------
S011400#1       	SCS~Type~II     	S011400         	143.95  	0       	908     	30      	0       	                
S011402#1       	SCS~Type~II     	S011402         	23.03   	0       	848     	30      	0       	                
S011403#1       	SCS~Type~II     	S011403         	36.29   	0       	1020    	340     	0       	                
S011407#1       	SCS~Type~II     	S011407         	245.788 	0       	1957    	0.16    	0       	                
S011411#1       	SCS~Type~II     	S011411         	14.78   	0       	608     	80      	0       	                
S011413#1       	SCS~Type~II     	S011413         	2.07    	0       	177     	30      	0       	                
S011414#1       	SCS~Type~II     	S011414         	0.63    	0       	139     	330     	0       	                
S011417#1       	SCS~Type~II     	S011417         	7.8     	0       	167     	30      	0       	                
S011423#1       	SCS~Type~II     	S011423         	22.17   	0       	598     	130     	0       	                
S011430#1       	SCS~Type~II     	S011430         	7.1     	0       	292     	80      	0       	                
S011433#1       	SCS~Type~II     	S011433         	1.89    	0       	206     	50      	0       	                
S011435#1       	SCS~Type~II     	S011435         	4.18    	0       	157     	40      	0       	                
S012036#1       	SCS~Type~II     	S012036         	12.95   	0       	740     	40      	0       	                
S012043#1       	SCS~Type~II     	S012043         	11.17   	0       	677     	30      	0       	                
S012400#1       	SCS~Type~II     	S012400         	30.64   	0       	3331    	210     	0       	                
S012401#1       	SCS~Type~II     	S012401         	41.59   	0       	639     	90      	0       	                
S012402#1       	SCS~Type~II     	S012402         	27.74   	0       	494     	80      	0       	                
S012403#1       	SCS~Type~II     	S012403         	33.74   	0       	872     	30      	0       	                
S012404#1       	SCS~Type~II     	S012404         	15.56   	0       	1632    	50      	0       	                
S012405#1       	SCS~Type~II     	S012405         	22.41   	0       	791     	190     	0       	                
S012406#1       	SCS~Type~II     	S012406         	5.19    	0       	267     	30      	0       	                
S012409#1       	SCS~Type~II     	S012409         	116.77  	0       	999     	30      	0       	                
S012412#1       	SCS~Type~II     	S012412         	3.87    	0       	563     	100     	0       	                
S012415#1       	SCS~Type~II     	S012415         	14.3    	0       	296     	30      	0       	                
S012415#2       	SCS~Type~II     	S012415         	14.75   	0       	786     	180     	0       	                
S012419#1       	SCS~Type~II     	S012419         	4.69    	0       	199     	30      	0       	                
S012420#1       	SCS~Type~II     	S012420         	132.24  	0       	1314    	40      	0       	                
S012421#1       	SCS~Type~II     	S012421         	1.94    	0       	142     	30      	0       	                
S012436#1       	SCS~Type~II     	S012436         	16.9    	0       	379     	30      	0       	                
S012441#1       	SCS~Type~II     	S012441         	11.61   	0       	495     	150     	0       	                
S012445#1       	SCS~Type~II     	S012445         	5.42    	0       	260     	30      	0       	                
S012446#1       	SCS~Type~II     	S012446         	8.21    	0       	383     	30      	0       	                
S013405#1       	SCS~Type~II     	S013405         	31.23   	60      	694     	100     	0       	                
S013411#1       	SCS~Type~II     	S013411         	62.67   	0       	1226    	30      	0       	                
S004401#1       	SCS~Type~II     	S004401         	110.12  	0       	1416    	40      	0       	                
S005102#1       	SCS~Type~II     	S005102         	9.32    	0       	407     	30      	0       	                
S005403#1       	SCS~Type~II     	S005403         	13.82   	0       	378     	30      	0       	                
S005404#1       	SCS~Type~II     	S005404         	6.96    	0       	414     	30      	0       	                
S005404#2       	SCS~Type~II     	S005404         	7.75    	0       	181     	30      	0       	                
S005409#1       	SCS~Type~II     	S005409         	4.52    	0       	366     	60      	0       	                
S005409#2       	SCS~Type~II     	S005409         	18.33   	0       	520     	30      	0       	                
S005410#1       	SCS~Type~II     	S005410         	10.22   	0       	575     	60      	0       	                
S005418#1       	SCS~Type~II     	S005418         	5.16    	0       	324     	30      	0       	                
S005455#1       	SCS~Type~II     	S005455         	16.74   	0       	317     	140     	0       	                
S011060#1       	SCS~Type~II     	S011060         	1.89    	0       	160     	30      	0       	                
S011065#1       	SCS~Type~II     	S011065         	1.88    	0       	130     	60      	0       	                
S011426#1       	SCS~Type~II     	S011426         	1.51    	0       	274     	260     	0       	                
S005440#1       	SCS~Type~II     	S005440         	10.04   	0       	350     	150     	0       	                
S005424#1       	SCS~Type~II     	S005424         	12.88   	0       	592     	230     	0       	                
S006471#1       	SCS~Type~II     	S006471         	4.74    	0       	245     	260     	0       	                
S006471#2       	SCS~Type~II     	S006471         	2.85    	0       	174     	90      	0       	                
S005436#1       	SCS~Type~II     	S005436         	7.72    	0       	1340    	380     	0       	                
S005436#2       	SCS~Type~II     	S005436         	45.83   	65.3    	896     	22.4    	0       	                
S005436#3       	SCS~Type~II     	S005436         	17.87   	75.8    	649     	77.4    	0       	                
S005452#1       	SCS~Type~II     	S005452         	28.53   	0       	837     	60      	0       	                
S005060#1       	SCS~Type~II     	S005060         	4.68    	0       	546     	50      	0       	                
S005065#1       	SCS~Type~II     	S005065         	10.2    	0       	320     	10      	0       	                
S005438#1       	SCS~Type~II     	S005438         	11.75   	0       	269     	30      	0       	                
S005016#1       	SCS~Type~II     	S005016         	4.22    	0       	566     	70      	0       	                
S006409#1       	SCS~Type~II     	S006409         	12.8    	0       	489     	40      	0       	                
S006119#1       	SCS~Type~II     	S006119         	11.8    	0       	317     	30      	0       	                
S006457#1       	SCS~Type~II     	S006457         	6.3     	0       	346     	10      	0       	                
S005456#1       	SCS~Type~II     	S005456         	9.94    	0       	380     	40      	0       	                
S005051#1       	SCS~Type~II     	S005051         	2.26    	0       	404     	30      	0       	                
S005046#1       	SCS~Type~II     	S005046         	8.39    	0       	236     	40      	0       	                
S005045#1       	SCS~Type~II     	S005045         	6.66    	0       	181     	10      	0       	                
S005411#1       	SCS~Type~II     	S005411         	28.45   	0       	1180    	60      	0       	                
S005408#1       	SCS~Type~II     	S005408         	5.62    	0       	429     	100     	0       	                
S005408#2       	SCS~Type~II     	S005408         	4.07    	0       	299     	26.6    	0       	                
S005079#1       	SCS~Type~II     	S005079         	7.07    	0       	471     	30      	0       	                
S005441#1       	SCS~Type~II     	S005441         	3.87    	0       	497     	70      	0       	                
S005056#1       	SCS~Type~II     	S005056         	1.03    	0       	106     	30      	0       	                
S005442#1       	SCS~Type~II     	S005442         	1.62    	0       	196     	50      	0       	                
S005082#1       	SCS~Type~II     	S005082         	6.46    	0       	671     	30      	0       	                
S005426#1       	SCS~Type~II     	S005426         	7.65    	0       	321     	70      	0       	                
S005036#1       	SCS~Type~II     	S005036         	19.44   	0       	547     	30      	0       	                
S011429#1       	SCS~Type~II     	S011429         	8.72    	0       	570     	0       	0       	                
S011015#1       	SCS~Type~II     	S011015         	20.43   	0       	636     	30      	0       	                
S011405#1       	SCS~Type~II     	S011405         	5.36    	0       	406     	90      	0       	                
S011004#1       	SCS~Type~II     	S011004         	1.97    	0       	194     	50      	0       	                
S005401#1       	SCS~Type~II     	S005401         	45.4    	0       	1288    	40      	0       	                
S005413#1       	SCS~Type~II     	S005413         	12.24   	0       	656     	90      	0       	                
S005413#2       	SCS~Type~II     	S005413         	16.8    	0       	434     	32.6    	0       	                
S005428#1       	SCS~Type~II     	S005428         	3.48    	0       	1067    	470     	0       	                
S005432#1       	SCS~Type~II     	S005432         	2.5     	0       	777     	180     	0       	                
S011441#1       	SCS~Type~II     	S011441         	4.64    	0       	325     	50      	0       	                
S025423#1       	SCS~Type~II     	S025423         	10.42   	0       	813     	10      	0       	                
S025423#2       	SCS~Type~II     	S025423         	41.74   	0       	1046    	31.2    	0       	                
S011437#1       	SCS~Type~II     	S011437         	15.05   	0       	477     	20      	0       	                
S011424#1       	SCS~Type~II     	S011424         	15.88   	0       	589     	50      	0       	                
S005038a#1      	SCS~Type~II     	S005038a        	7.19    	0       	581     	90      	0       	                
S005467#1       	SCS~Type~II     	S005467         	7.16    	0       	355     	190     	0       	                
S024497#1       	SCS~Type~II     	S024497         	9.37    	0       	304     	10      	0       	                
S005468#1       	SCS~Type~II     	S005468         	1.71    	0       	147     	110     	0       	                
S006057#1       	SCS~Type~II     	S006057         	16.45   	0       	886     	40      	0       	                
S006107#1       	SCS~Type~II     	S006107         	1.22    	0       	141     	30      	0       	                
S006107#2       	SCS~Type~II     	S006107         	3.64    	0       	215     	0.3     	0       	                
S006405#1       	SCS~Type~II     	S006405         	7.72    	0       	478     	30      	0       	                
S006412#1       	SCS~Type~II     	S006412         	16.17   	0       	774     	30      	0       	                
S006413#1       	SCS~Type~II     	S006413         	13.51   	0       	708     	30      	0       	                
S006415#1       	SCS~Type~II     	S006415         	45.26   	0       	978     	30      	0       	                
S006423#1       	SCS~Type~II     	S006423         	11.75   	0       	472     	30      	0       	                
S006429#1       	SCS~Type~II     	S006429         	11.52   	0       	660     	30      	0       	                
S006430#1       	SCS~Type~II     	S006430         	16.21   	0       	631     	30      	0       	                
S006431#1       	SCS~Type~II     	S006431         	8.12    	0       	478     	30      	0       	                
S006432#1       	SCS~Type~II     	S006432         	2.02    	0       	296     	30      	0       	                
S006445#1       	SCS~Type~II     	S006445         	8.06    	0       	638     	30      	0       	                
S006446#1       	SCS~Type~II     	S006446         	27.91   	0       	1811    	40      	0       	                
S006447#1       	SCS~Type~II     	S006447         	5.62    	0       	361     	320     	0       	                
S006449#1       	SCS~Type~II     	S006449         	0.96    	0       	69      	60      	0       	                
S006450#1       	SCS~Type~II     	S006450         	10.09   	0       	238     	30      	0       	                
S006452#1       	SCS~Type~II     	S006452         	5.24    	0       	283     	220     	0       	                
S006453#1       	SCS~Type~II     	S006453         	7.79    	0       	232     	30      	0       	                
S006456#1       	SCS~Type~II     	S006456         	16.18   	0       	915     	220     	0       	                
S006460#1       	SCS~Type~II     	S006460         	6.2     	0       	344     	40      	0       	                
S006467#1       	SCS~Type~II     	S006467         	3.01    	0       	265     	190     	0       	                
S009059#1       	SCS~Type~II     	S009059         	37.09   	0       	861     	30      	0       	                
S009063#1       	SCS~Type~II     	S009063         	9.23    	0       	299     	30      	0       	                
S009400#1       	SCS~Type~II     	S009400         	40.26   	0       	938     	30      	0       	                
S010004#1       	SCS~Type~II     	S010004         	8.98    	0       	304     	30      	0       	                
S010029#1       	SCS~Type~II     	S010029         	6.47    	0       	301     	60      	0       	                
S010036#1       	SCS~Type~II     	S010036         	19.15   	0       	893     	30      	0       	                
S010051#1       	SCS~Type~II     	S010051         	11.58   	0       	378     	30      	0       	                
S010075#1       	SCS~Type~II     	S010075         	3.18    	0       	204     	30      	0       	                
S010400#1       	SCS~Type~II     	S010400         	2.78    	0       	171     	30      	0       	                
S010403#1       	SCS~Type~II     	S010403         	3.69    	0       	251     	30      	0       	                
S010405#1       	SCS~Type~II     	S010405         	5.03    	0       	420     	30      	0       	                
S010406#1       	SCS~Type~II     	S010406         	9.66    	0       	394     	30      	0       	                
S010408#1       	SCS~Type~II     	S010408         	6.7     	0       	364     	30      	0       	                
S010411#1       	SCS~Type~II     	S010411         	14.77   	0       	987     	130     	0       	                
S010412#1       	SCS~Type~II     	S010412         	10.53   	0       	400     	30      	0       	                
S010415#1       	SCS~Type~II     	S010415         	94.51   	0       	725     	30      	0       	                
S010418#1       	SCS~Type~II     	S010418         	21.36   	0       	988     	30      	0       	                
S006416#1       	SCS~Type~II     	S006416         	10.54   	0       	391     	30      	0       	                
S006058#1       	SCS~Type~II     	S006058         	20.48   	0       	576     	30      	0       	                
S006403#1       	SCS~Type~II     	S006403         	14.13   	0       	1142    	40      	0       	                
S006408#1       	SCS~Type~II     	S006408         	14.36   	0       	618     	30      	0       	                
S006421#1       	SCS~Type~II     	S006421         	28.89   	0       	633     	30      	0       	                
S006426#1       	SCS~Type~II     	S006426         	28.37   	0       	697     	30      	0       	                
S006434#1       	SCS~Type~II     	S006434         	3.56    	0       	272     	30      	0       	                
S006434#2       	SCS~Type~II     	S006434         	42.04   	0       	772     	30      	0       	                
S010401#1       	SCS~Type~II     	S010401         	4.98    	0       	298     	30      	0       	                
S007400#1       	SCS~Type~II     	S007400         	21.19   	0       	716     	30      	0       	                
S006009#1       	SCS~Type~II     	S006009         	2.32    	0       	300     	30      	0       	                
S006428#1       	SCS~Type~II     	S006428         	8.75    	0       	466     	30      	0       	                
S006427#1       	SCS~Type~II     	S006427         	13.9    	0       	586     	30      	0       	                
S024419#1       	SCS~Type~II     	S024419         	51.87   	0       	762     	30      	0       	                
S024463#1       	SCS~Type~II     	S024463         	0.58    	0       	74      	270     	0       	                
S025421#1       	SCS~Type~II     	S025421         	0.66    	0       	95      	400     	0       	                
S024470#1       	SCS~Type~II     	S024470         	2.77    	0       	165     	630     	0       	                
S025420#1       	SCS~Type~II     	S025420         	0.64    	0       	90      	30      	0       	                
S024485#1       	SCS~Type~II     	S024485         	2.79    	0       	118     	570     	0       	                
S024479#1       	SCS~Type~II     	S024479         	2.81    	0       	209     	410     	0       	                
S025411#1       	SCS~Type~II     	S025411         	0.44    	0       	89      	290     	0       	                
S024030a#1      	SCS~Type~II     	S024030a        	4.3     	0       	330     	820     	0       	                
S025407#1       	SCS~Type~II     	S025407         	1.85    	0       	175     	420     	0       	                
S025418#1       	SCS~Type~II     	S025418         	3.54    	0       	267     	240     	0       	                
S024019#1       	SCS~Type~II     	S024019         	3.63    	0       	267     	540     	0       	                
S025410#1       	SCS~Type~II     	S025410         	2.32    	0       	235     	570     	0       	                
S024484#1       	SCS~Type~II     	S024484         	2.08    	0       	106     	880     	0       	                
S025002d#1      	SCS~Type~II     	S025002d        	1.47    	0       	96      	360     	0       	                
S024449#1       	SCS~Type~II     	S024449         	10.08   	0       	684     	650     	0       	                
S025402#1       	SCS~Type~II     	S025402         	5.45    	0       	295     	430     	0       	                
S024498#1       	SCS~Type~II     	S024498         	7.81    	0       	469     	30      	0       	                
S025406#1       	SCS~Type~II     	S025406         	1.68    	0       	108     	350     	0       	                
S024468#1       	SCS~Type~II     	S024468         	4.26    	0       	301     	490     	0       	                
S024488#1       	SCS~Type~II     	S024488         	9.04    	0       	442     	30      	0       	                
S024459#1       	SCS~Type~II     	S024459         	4.79    	0       	286     	410     	0       	                
S025401#1       	SCS~Type~II     	S025401         	1.72    	0       	179     	680     	0       	                
S024065b#1      	SCS~Type~II     	S024065b        	0.51    	0       	85      	510     	0       	                
S024457#1       	SCS~Type~II     	S024457         	2.43    	0       	205     	620     	0       	                
S024408#1       	SCS~Type~II     	S024408         	41.41   	0       	710     	50      	0       	                
S024438#1       	SCS~Type~II     	S024438         	7.16    	0       	333     	380     	0       	                
S024432#1       	SCS~Type~II     	S024432         	4.74    	0       	315     	340     	0       	                
S024081#1       	SCS~Type~II     	S024081         	6.99    	0       	448     	410     	0       	                
S024427#1       	SCS~Type~II     	S024427         	11.97   	0       	375     	220     	0       	                
S024422#1       	SCS~Type~II     	S024422         	4.78    	0       	204     	450     	0       	                
S024042#1       	SCS~Type~II     	S024042         	3.15    	0       	177     	360     	0       	                
S024400#1       	SCS~Type~II     	S024400         	18.76   	0       	486     	270     	0       	                
S004400#1       	SCS~Type~II     	S004400         	18.59   	0       	434     	50      	0       	                
S004400#2       	SCS~Type~II     	S004400         	25.94   	0       	467     	30      	0       	                
S004403#1       	SCS~Type~II     	S004403         	31.32   	0       	748     	30      	0       	                
S004405#1       	SCS~Type~II     	S004405         	25.54   	0       	745     	180     	0       	                
S012407#1       	SCS~Type~II     	S012407         	14.02   	0       	477     	30      	0       	                
S012408#1       	SCS~Type~II     	S012408         	36.79   	0       	843     	30      	0       	                

[SUBAREAS]
;;Subcatchment  	N-Imperv  	N-Perv    	S-Imperv  	S-Perv    	PctZero   	RouteTo   	PctRouted 
;;--------------	----------	----------	----------	----------	----------	----------	----------
S011400#1       	0.01      	0.1       	0.05      	0.05      	25        	OUTLET    
S011402#1       	0.01      	0.1       	0.05      	0.05      	25        	OUTLET    
S011403#1       	0.01      	0.1       	0.05      	0.05      	25        	OUTLET    
S011407#1       	0.01      	0.1       	0.05      	0.05      	25        	OUTLET    
S011411#1       	0.01      	0.1       	0.05      	0.05      	25        	OUTLET    
S011413#1       	0.01      	0.1       	0.05      	0.05      	25        	OUTLET    
S011414#1       	0.01      	0.1       	0.05      	0.05      	25        	OUTLET    
S011417#1       	0.01      	0.1       	0.05      	0.05      	25        	OUTLET    
S011423#1       	0.01      	0.1       	0.05      	0.05      	25        	OUTLET    
S011430#1       	0.01      	0.1       	0.05      	0.05      	25        	OUTLET    
S011433#1       	0.01      	0.1       	0.05      	0.05      	25        	OUTLET    
S011435#1       	0.01      	0.1       	0.05      	0.05      	25        	OUTLET    
S012036#1       	0.01      	0.1       	0.05      	0.05      	25        	OUTLET    
S012043#1       	0.01      	0.1       	0.05      	0.05      	25        	OUTLET    
S012400#1       	0.01      	0.1       	0.05      	0.05      	25        	OUTLET    
S012401#1       	0.01      	0.1       	0.05      	0.05      	25        	OUTLET    
S012402#1       	0.01      	0.1       	0.05      	0.05      	25        	OUTLET    
S012403#1       	0.01      	0.1       	0.05      	0.05      	25        	OUTLET    
S012404#1       	0.01      	0.1       	0.05      	0.05      	25        	OUTLET    
S012405#1       	0.01      	0.1       	0.05      	0.05      	25        	OUTLET    
S012406#1       	0.01      	0.1       	0.05      	0.05      	25        	OUTLET    
S012409#1       	0.01      	0.1       	0.05      	0.05      	25        	OUTLET    
S012412#1       	0.01      	0.1       	0.05      	0.05      	25        	OUTLET    
S012415#1       	0.01      	0.1       	0.05      	0.05      	25        	OUTLET    
S012415#2       	0.01      	0.1       	0.05      	0.05      	25        	OUTLET    
S012419#1       	0.01      	0.1       	0.05      	0.05      	25        	OUTLET    
S012420#1       	0.01      	0.1       	0.05      	0.05      	25        	OUTLET    
S012421#1       	0.01      	0.1       	0.05      	0.05      	25        	OUTLET    
S012436#1       	0.01      	0.1       	0.05      	0.05      	25        	OUTLET    
S012441#1       	0.01      	0.1       	0.05      	0.05      	25        	OUTLET    
S012445#1       	0.01      	0.1       	0.05      	0.05      	25        	OUTLET    
S012446#1       	0.01      	0.1       	0.05      	0.05      	25        	OUTLET    
S013405#1       	0.01      	0.1       	0.05      	0.05      	25        	OUTLET    
S013411#1       	0.01      	0.1       	0.05      	0.05      	25        	OUTLET    
S004401#1       	0.01      	0.1       	0.05      	0.05      	25        	OUTLET    
S005102#1       	0.01      	0.1       	0.05      	0.05      	25        	OUTLET    
S005403#1       	0.01      	0.1       	0.05      	0.05      	25        	OUTLET    
S005404#1       	0.01      	0.1       	0.05      	0.05      	25        	OUTLET    
S005404#2       	0.01      	0.1       	0.05      	0.05      	25        	OUTLET    
S005409#1       	0.01      	0.1       	0.05      	0.05      	25        	OUTLET    
S005409#2       	0.01      	0.1       	0.05      	0.05      	25        	OUTLET    
S005410#1       	0.01      	0.1       	0.05      	0.05      	25        	OUTLET    
S005418#1       	0.01      	0.1       	0.05      	0.05      	25        	OUTLET    
S005455#1       	0.01      	0.1       	0.05      	0.05      	25        	OUTLET    
S011060#1       	0.01      	0.1       	0.05      	0.05      	25        	OUTLET    
S011065#1       	0.01      	0.1       	0.05      	0.05      	25        	OUTLET    
S011426#1       	0.01      	0.1       	0.05      	0.05      	25        	OUTLET    
S005440#1       	0.01      	0.1       	0.05      	0.05      	25        	OUTLET    
S005424#1       	0.01      	0.1       	0.05      	0.05      	25        	OUTLET    
S006471#1       	0.01      	0.1       	0.05      	0.05      	25        	OUTLET    
S006471#2       	0.01      	0.1       	0.05      	0.05      	25        	OUTLET    
S005436#1       	0.01      	0.1       	0.05      	0.05      	25        	OUTLET    
S005436#2       	0.01      	0.1       	0.05      	0.05      	25        	OUTLET    
S005436#3       	0.01      	0.1       	0.05      	0.05      	25        	OUTLET    
S005452#1       	0.01      	0.1       	0.05      	0.05      	25        	OUTLET    
S005060#1       	0.01      	0.1       	0.05      	0.05      	25        	OUTLET    
S005065#1       	0.01      	0.1       	0.05      	0.05      	25        	OUTLET    
S005438#1       	0.01      	0.1       	0.05      	0.05      	25        	OUTLET    
S005016#1       	0.01      	0.1       	0.05      	0.05      	25        	OUTLET    
S006409#1       	0.01      	0.1       	0.05      	0.05      	25        	OUTLET    
S006119#1       	0.01      	0.1       	0.05      	0.05      	25        	OUTLET    
S006457#1       	0.01      	0.1       	0.05      	0.05      	25        	OUTLET    
S005456#1       	0.01      	0.1       	0.05      	0.05      	25        	OUTLET    
S005051#1       	0.01      	0.1       	0.05      	0.05      	25        	OUTLET    
S005046#1       	0.01      	0.1       	0.05      	0.05      	25        	OUTLET    
S005045#1       	0.01      	0.1       	0.05      	0.05      	25        	OUTLET    
S005411#1       	0.01      	0.1       	0.05      	0.05      	25        	OUTLET    
S005408#1       	0.01      	0.1       	0.05      	0.05      	25        	OUTLET    
S005408#2       	0.01      	0.1       	0.05      	0.05      	25        	OUTLET    
S005079#1       	0.01      	0.1       	0.05      	0.05      	25        	OUTLET    
S005441#1       	0.01      	0.1       	0.05      	0.05      	25        	OUTLET    
S005056#1       	0.01      	0.1       	0.05      	0.05      	25        	OUTLET    
S005442#1       	0.01      	0.1       	0.05      	0.05      	25        	OUTLET    
S005082#1       	0.01      	0.1       	0.05      	0.05      	25        	OUTLET    
S005426#1       	0.01      	0.1       	0.05      	0.05      	25        	OUTLET    
S005036#1       	0.01      	0.1       	0.05      	0.05      	25        	OUTLET    
S011429#1       	0.01      	0.1       	0.05      	0.05      	25        	OUTLET    
S011015#1       	0.01      	0.1       	0.05      	0.05      	25        	OUTLET    
S011405#1       	0.01      	0.1       	0.05      	0.05      	25        	OUTLET    
S011004#1       	0.01      	0.1       	0.05      	0.05      	25        	OUTLET    
S005401#1       	0.01      	0.1       	0.05      	0.05      	25        	OUTLET    
S005413#1       	0.01      	0.1       	0.05      	0.05      	25        	OUTLET    
S005413#2       	0.01      	0.1       	0.05      	0.05      	25        	OUTLET    
S005428#1       	0.01      	0.1       	0.05      	0.05      	25        	OUTLET    
S005432#1       	0.01      	0.1       	0.05      	0.05      	25        	OUTLET    
S011441#1       	0.01      	0.1       	0.05      	0.05      	25        	OUTLET    
S025423#1       	0.01      	0.1       	0.05      	0.05      	25        	OUTLET    
S025423#2       	0.01      	0.1       	0.05      	0.05      	25        	OUTLET    
S011437#1       	0.01      	0.1       	0.05      	0.05      	25        	OUTLET    