[TITLE]
;;Project Title/Notes
Scenario Run :  BASE

[OPTIONS]
;;Option             Value
FLOW_UNITS           CMS
INFILTRATION         HORTON
FLOW_ROUTING         DYNWAVE
LINK_OFFSETS         DEPTH
MIN_SLOPE            0
ALLOW_PONDING        YES
SKIP_STEADY_STATE    NO

START_DATE           07/21/2011
START_TIME           00:00:00
REPORT_START_DATE    07/21/2011
REPORT_START_TIME    00:00:00
END_DATE             07/23/2011
END_TIME             00:00:00
SWEEP_START          01/01
SWEEP_END            12/31
DRY_DAYS             0.000000
REPORT_STEP          00:15:00
WET_STEP             00:05:00
DRY_STEP             01:00:00
ROUTING_STEP         0:00:30 

INERTIAL_DAMPING     PARTIAL
NORMAL_FLOW_LIMITED  BOTH
FORCE_MAIN_EQUATION  D-W
VARIABLE_STEP        0.75
LENGTHENING_STEP     0
MIN_SURFAREA         1.14
MAX_TRIALS           8
HEAD_TOLERANCE       0.0015
SYS_FLOW_TOL         5
LAT_FLOW_TOL         5
MINIMUM_STEP         0.5
THREADS              1

[EVAPORATION]
;;Data Source    Parameters
;;-------------- ----------------
CONSTANT         0.000000
DRY_ONLY         NO

[RAINGAGES]
;;Name           Format    Interval SCF      Source    
;;-------------- --------- ------ ------ ----------
BRI              INTENSITY 0.083333 1.000000 TIMESERIES BRI_RAINGAGE    
NKNL             INTENSITY 0.083333 1.000000 TIMESERIES NKNL            
NKNLL            INTENSITY 0.083333 1.000000 TIMESERIES NKNLL           
RUD              INTENSITY 0.083333 1.000000 TIMESERIES RUD             

[SUBCATCHMENTS]
;;Name           Rain Gage        Outlet           Area     %Imperv  Width    %Slope   CurbLen  SnowPack        
;;-------------- ---------------- ---------------- -------- -------- -------- -------- -------- ----------------
BRI_1            BRI              7175109          100.000000 1.800000 935.139936 0.123144 0.000000                 
BRI_2            BRI              6154004          100.000000 1.800000 1005.290611 7.240783 0.000000                 
BRI_3            BRI              5151113          100.000000 1.800000 1219.739377 0.064516 0.000000                 
BRI_4            BRI              1164109          100.000000 1.800000 523.434948 0.719244 0.000000                 
BRI_5            BRI              173106           100.000000 1.800000 634.716178 0.730075 0.000000                 
BRI_6            BRI              185105           100.000000 1.800000 608.501175 0.087336 0.000000                 
BRI_7            BRI              172108           100.000000 1.800000 424.707623 0.459966 0.000000                 
BRI_8            BRI              1176121          100.000000 1.800000 623.129692 0.483516 0.000000                 
BRI_9            BRI              1162120          100.000000 1.800000 462.274790 0.980169 0.000000                 
RUDOW1           RUD              91121101         100.000000 1.800000 688.681153 0.464972 0.000000                 
RUDOW10          RUD              90132118         100.000000 1.800000 667.558118 0.198377 0.000000                 
RUDOW11          RUD              90124111         100.000000 1.800000 328.976232 0.082012 0.000000                 
RUDOW12          RUD              2126004          100.000000 1.800000 547.002096 0.048544 0.000000                 
RUDOW13          RUD              1125146          100.000000 1.800000 422.200825 0.356947 0.000000                 
RUDOW2           RUD              91111102         100.000000 1.800000 589.031218 1.943574 0.000000                 
RUDOW3           RUD              90116110         100.000000 1.800000 520.157095 0.574163 0.000000                 
RUDOW4           RUD              115108           100.000000 1.800000 594.410610 1.068935 0.000000                 
RUDOW5           RUD              2113105          100.000000 1.800000 711.415996 0.098697 0.000000                 
RUDOW6           RUD              2124105          100.000000 1.800000 538.202561 0.440529 0.000000                 
RUDOW7           RUD              2134103          100.000000 1.800000 672.309481 0.131107 0.000000                 
RUDOW8           RUD              1134106          100.000000 1.800000 569.803549 1.225449 0.000000                 
RUDOW9           RUD              131102           100.000000 1.800000 482.043791 0.529538 0.000000                 
S09162706        NKNLL            9162706          100.000000 90.000000 45.834978 1.264368 0.000000                 
S09171318        NKNL             9171318          100.000000 88.000000 169.538735 0.261927 0.000000                 
S09173313        NKNL             9173313          100.000000 72.000000 160.273541 0.140728 0.000000                 
S09173335        NKNL             9173335          100.000000 84.000000 147.392842 0.263267 0.000000                 
S10151329        NKNLL            10151329         100.000000 85.000000 115.072548 0.357512 0.000000                 
S10153328        NKNLL            10153328         100.000000 83.000000 177.697329 0.098113 0.000000                 
S10153903        NKNLL            10153903         100.000000 80.000000 158.174451 0.191693 0.000000                 
S10155005        NKNLL            10155005         100.000000 74.000000 83.872811 0.062138 0.000000                 
S10155317        NKNLL            10155317         100.000000 84.000000 198.431179 0.269595 0.000000                 
S10161307        NKNL             10161307         100.000000 73.000000 222.193302 0.265909 0.000000                 
S10162320        NKNL             10162320         100.000000 83.000000 144.613137 0.153896 0.000000                 
S10162328        NKNL             10162328         100.000000 80.000000 85.934797 0.211014 0.000000                 
S10163002        NKNL             10163002         100.000000 75.000000 67.937422 0.274308 0.000000                 
S10163004        NKNL             10163004         100.000000 81.000000 136.808703 1.299919 0.000000                 
S10164321        NKNL             10164321         100.000000 89.000000 109.254843 0.185319 0.000000                 
S10164341        NKNL             10164341         100.000000 81.000000 141.835062 0.232438 0.000000                 
S10166002        NKNL             10166002         100.000000 79.000000 103.263649 0.334060 0.000000                 
S10173308        NKNL             10173308         100.000000 85.000000 331.674383 0.824682 0.000000                 
S10173317        NKNL             10173317         100.000000 90.000000 36.996385 0.692308 0.000000                 
S10175004        NKNL             10175004         100.000000 85.000000 121.005185 1.204195 0.000000                 
S10176316        NKNL             10176316         100.000000 79.000000 147.877954 1.617653 0.000000                 
S10176332        NKNL             10176332         100.000000 92.000000 35.682482 1.470183 0.000000                 
S10176901        NKNL             10176901         100.000000 79.000000 144.503040 1.822129 0.000000                 
S11151004        NKNL             11151004         100.000000 72.000000 209.131008 0.900179 0.000000                 
S11151336        NKNL             11151336         100.000000 78.000000 169.350881 0.095694 0.000000                 
S11153001        NKNL             11153001         100.000000 83.000000 41.459298 0.313374 0.000000                 
S11153002        NKNL             11153002         100.000000 86.000000 62.571652 0.319569 0.000000                 
S11153003        NKNL             11153003         100.000000 87.000000 58.632301 0.755839 0.000000                 
S11153323        NKNL             11153323         100.000000 84.000000 150.332970 0.494748 0.000000                 
S11156302        NKNLL            11156302         100.000000 83.000000 82.726432 0.497586 0.000000                 
S11156304        NKNLL            11156304         100.000000 85.000000 79.388511 0.420101 0.000000                 
S11161321        NKNL             11161321         100.000000 85.000000 234.529206 0.118227 0.000000                 
S11161341        NKNL             11161341         100.000000 88.000000 206.527298 0.424968 0.000000                 
S11162001        NKNL             11162001         100.000000 72.000000 124.121708 0.026495 0.000000                 
S11163303        NKNL             11163303         100.000000 83.000000 138.542723 0.062391 0.000000                 
S11163306        NKNL             11163306         100.000000 88.000000 27.639532 0.122951 0.000000                 
S11164345        NKNL             11164345         100.000000 86.000000 107.344389 0.061422 0.000000                 
S11165315        NKNL             11165315         100.000000 74.000000 155.945103 0.257195 0.000000                 
S11166347        NKNL             11166347         100.000000 85.000000 58.632301 0.158850 0.000000                 
S11166353        NKNL             11166353         100.000000 78.000000 223.051194 0.023552 0.000000                 
S11172321        NKNL             11172321         100.000000 80.000000 254.261161 0.460405 0.000000                 
S11172908        NKNL             11172908         100.000000 88.000000 131.348376 0.377420 0.000000                 
S11172931        NKNL             11172931         100.000000 88.000000 167.080151 0.250447 0.000000                 
S11174318        NKNL             11174318         100.000000 90.000000 141.498028 0.409640 0.000000                 
S12155313        NKNL             12155313         100.000000 80.000000 227.362102 0.050224 0.000000                 
S12155902        NKNL             12155902         100.000000 73.000000 156.962369 0.431171 0.000000                 
S12161051        NKNL             12161051         100.000000 83.000000 82.340759 1.201079 0.000000                 
S12161318        NKNL             12161318         100.000000 79.000000 176.348734 0.005247 0.000000                 
S12161323        NKNL             12161323         100.000000 83.000000 53.225539 1.245186 0.000000                 
S12162334        NKNL             12162334         100.000000 78.000000 182.731243 1.327980 0.000000                 
S12164002        NKNL             12164002         100.000000 67.000000 157.670549 0.206939 0.000000                 
S12164003        NKNL             12164003         100.000000 87.000000 25.231325 1.734575 0.000000                 
S12164005        NKNL             12164005         100.000000 92.000000 18.712052 0.093458 0.000000                 
S12164006        NKNL             12164006         100.000000 79.000000 131.711384 0.833333 0.000000                 
S12164310        NKNL             12164310         100.000000 79.000000 87.585777 0.749215 0.000000                 
S12165337        NKNL             12165337         100.000000 65.000000 57.812229 0.077817 0.000000                 
S12166330        NKNL             12166330         100.000000 95.000000 39.088201 0.452816 0.000000                 
S12171001        NKNL             12171001         100.000000 87.000000 182.033127 0.164939 0.000000                 
S12171302        NKNL             12171302         100.000000 87.000000 221.475853 0.388248 0.000000                 
S12172342        NKNL             12172342         100.000000 79.000000 75.483422 0.101683 0.000000                 
S12173315        NKNL             12173315         100.000000 88.000000 96.078024 0.315028 0.000000                 
S12173319        NKNL             12173319         100.000000 87.000000 69.328777 0.187609 0.000000                 
S12174347        NKNL             12174347         100.000000 79.000000 48.204379 0.394118 0.000000                 
S12176343        NKNL             12176343         100.000000 89.000000 106.898667 0.207612 0.000000                 
S13163310        NKNL             13163310         100.000000 73.000000 131.590493 0.790874 0.000000                 
S13165311        NKNL             13165311         100.000000 81.000000 119.682684 0.531020 0.000000                 
S13165319        NKNL             13165319         100.000000 75.000000 103.417659 0.064596 0.000000                 
S13171001        NKNL             13171001         100.000000 91.000000 190.157837 0.316904 0.000000                 
S13171331        NKNL             13171003         100.000000 83.000000 39.088201 0.264228 0.000000                 
S13171346        NKNL             13171346         100.000000 84.000000 213.051613 0.211130 0.000000                 
S13174005        NKNL             13174005         100.000000 89.000000 70.917531 0.621345 0.000000                 
S13174007        NKNL             13174007         100.000000 70.000000 172.147177 0.602372 0.000000                 
S13174310        NKNL             13174310         100.000000 74.000000 45.486418 0.337509 0.000000                 
S13174332        NKNL             13174332         100.000000 82.000000 167.365677 0.021532 0.000000                 
S13176008        NKNL             13176008         100.000000 80.000000 113.820966 0.212112 0.000000                 
S13176009        NKNL             13176009         100.000000 76.000000 36.563664 0.035749 0.000000                 
S14175001        NKNL             14175001         100.000000 91.000000 106.749679 0.451389 0.000000                 
S14184001        NKNL             14184001         100.000000 91.000000 175.080673 0.749365 0.000000                 

[SUBAREAS]
;;Subcatchment   N-Imperv   N-Perv     S-Imperv   S-Perv     PctZero    RouteTo    PctRouted 
;;-------------- ---------- ---------- ---------- ---------- ---------- ---------- ----------
BRI_1            0.350000   1.000000   1.000000   2.279728   0.000000   OUTLET    
BRI_2            0.350000   1.000000   1.000000   0.297302   0.000000   OUTLET    
BRI_3            0.350000   1.000000   1.000000   3.149603   0.000000   OUTLET    
BRI_4            0.350000   1.000000   1.000000   0.943304   0.000000   OUTLET    
BRI_5            0.350000   1.000000   1.000000   0.936281   0.000000   OUTLET    
BRI_6            0.350000   1.000000   1.000000   2.707028   0.000000   OUTLET    
BRI_7            0.350000   1.000000   1.000000   1.179579   0.000000   OUTLET    
BRI_8            0.350000   1.000000   1.000000   1.150494   0.000000   OUTLET    
BRI_9            0.350000   1.000000   1.000000   0.808052   0.000000   OUTLET    
RUDOW1           0.500000   1.000000   1.000000   1.173212   0.000000   OUTLET    
RUDOW10          0.500000   1.000000   1.000000   1.796158   0.000000   OUTLET    
RUDOW11          0.500000   1.000000   1.000000   2.793516   0.000000   OUTLET    
RUDOW12          0.500000   1.000000   1.000000   3.630978   0.000000   OUTLET    
RUDOW13          0.500000   1.000000   1.000000   1.339024   0.000000   OUTLET    
RUDOW2           0.500000   1.000000   1.000000   0.573838   0.000000   OUTLET    
RUDOW3           0.500000   1.000000   1.000000   1.055778   0.000000   OUTLET    
RUDOW4           0.500000   1.000000   1.000000   0.773774   0.000000   OUTLET    
RUDOW5           0.500000   1.000000   1.000000   2.546464   0.000000   OUTLET    
RUDOW6           0.500000   1.000000   1.000000   1.205322   0.000000   OUTLET    
RUDOW7           0.500000   1.000000   1.000000   2.209410   0.000000   OUTLET    
RUDOW8           0.500000   1.000000   1.000000   0.722674   0.000000   OUTLET    
RUDOW9           0.500000   1.000000   1.000000   1.099363   0.000000   OUTLET    
S09162706        0.010000   0.100000   0.050000   0.050000   25.000000  OUTLET    
S09171318        0.010000   0.100000   0.050000   0.050000   25.000000  OUTLET    
S09173313        0.010000   0.100000   0.050000   0.050000   25.000000  OUTLET    
S09173335        0.010000   0.100000   0.050000   0.050000   25.000000  OUTLET    
S10151329        0.010000   0.100000   0.050000   0.050000   25.000000  OUTLET    
S10153328        0.010000   0.100000   0.050000   0.050000   25.000000  OUTLET    
S10153903        0.010000   0.100000   0.050000   0.050000   25.000000  OUTLET    
S10155005        0.010000   0.100000   0.050000   0.050000   25.000000  OUTLET    
S10155317        0.010000   0.100000   0.050000   0.050000   25.000000  OUTLET    
S10161307        0.010000   0.100000   0.050000   0.050000   25.000000  OUTLET    
S10162320        0.010000   0.100000   0.050000   0.050000   25.000000  OUTLET    
S10162328        0.010000   0.100000   0.050000   0.050000   25.000000  OUTLET    
S10163002        0.010000   0.100000   0.050000   0.050000   25.000000  OUTLET    
S10163004        0.010000   0.100000   0.050000   0.050000   25.000000  OUTLET    
S10164321        0.010000   0.100000   0.050000   0.050000   25.000000  OUTLET    
S10164341        0.010000   0.100000   0.050000   0.050000   25.000000  OUTLET    
S10166002        0.010000   0.100000   0.050000   0.050000   25.000000  OUTLET    
S10173308        0.010000   0.100000   0.050000   0.050000   25.000000  OUTLET    
S10173317        0.010000   0.100000   0.050000   0.050000   25.000000  OUTLET    
S10175004        0.010000   0.100000   0.050000   0.050000   25.000000  OUTLET    
S10176316        0.010000   0.100000   0.050000   0.050000   25.000000  OUTLET    
S10176332        0.010000   0.100000   0.050000   0.050000   25.000000  OUTLET    
S10176901        0.010000   0.100000   0.050000   0.050000   25.000000  OUTLET    
S11151004        0.010000   0.100000   0.050000   0.050000   25.000000  OUTLET    
S11151336        0.010000   0.100000   0.050000   0.050000   25.000000  OUTLET    
S11153001        0.010000   0.100000   0.050000   0.050000   25.000000  OUTLET    
S11153002        0.010000   0.100000   0.050000   0.050000   25.000000  OUTLET    
S11153003        0.010000   0.100000   0.050000   0.050000   25.000000  OUTLET    
S11153323        0.010000   0.100000   0.050000   0.050000   25.000000  OUTLET    
S11156302        0.010000   0.100000   0.050000   0.050000   25.000000  OUTLET    
S11156304        0.010000   0.100000   0.050000   0.050000   25.000000  OUTLET    
S11161321        0.010000   0.100000   0.050000   0.050000   25.000000  OUTLET    
S11161341        0.010000   0.100000   0.050000   0.050000   25.000000  OUTLET    
S11162001        0.010000   0.100000   0.050000   0.050000   25.000000  OUTLET    
S11163303        0.010000   0.100000   0.050000   0.050000   25.000000  OUTLET    
S11163306        0.010000   0.100000   0.050000   0.050000   25.000000  OUTLET    
S11164345        0.010000   0.100000   0.050000   0.050000   25.000000  OUTLET    
S11165315        0.010000   0.100000   0.050000   0.050000   25.000000  OUTLET    
S11166347        0.010000   0.100000   0.050000   0.050000   25.000000  OUTLET    
S11166353        0.010000   0.100000   0.050000   0.050000   25.000000  OUTLET    
S11172321        0.010000   0.100000   0.050000   0.050000   25.000000  OUTLET    
S11172908        0.010000   0.100000   0.050000   0.050000   25.000000  OUTLET    
S11172931        0.010000   0.100000   0.050000   0.050000   25.000000  OUTLET    
S11174318        0.010000   0.100000   0.050000   0.050000   25.000000  OUTLET    
S12155313        0.010000   0.100000   0.050000   0.050000   25.000000  OUTLET    
S12155902        0.010000   0.100000   0.050000   0.050000   25.000000  OUTLET    
S12161051        0.010000   0.100000   0.050000   0.050000   25.000000  OUTLET    
S12161318        0.010000   0.100000   0.050000   0.050000   25.000000  OUTLET    
S12161323        0.010000   0.100000   0.050000   0.050000   25.000000  OUTLET    
S12162334        0.010000   0.100000   0.050000   0.050000   25.000000  OUTLET    
S12164002        0.010000   0.100000   0.050000   0.050000   25.000000  OUTLET    
S12164003        0.010000   0.100000   0.050000   0.050000   25.000000  OUTLET    
S12164005        0.010000   0.100000   0.050000   0.050000   25.000000  OUTLET    
S12164006        0.010000   0.100000   0.050000   0.050000   25.000000  OUTLET    
S12164310        0.010000   0.100000   0.050000   0.050000   25.000000  OUTLET    
S12165337        0.010000   0.100000   0.050000   0.050000   25.000000  OUTLET    
S12166330        0.010000   0.100000   0.050000   0.050000   25.000000  OUTLET    
S12171001        0.010000   0.100000   0.050000   0.050000   25.000000  OUTLET    
S12171302        0.010000   0.100000   0.050000   0.050000   25.000000  OUTLET    
S12172342        0.010000   0.100000   0.050000   0.050000   25.000000  OUTLET    
S12173315        0.010000   0.100000   0.050000   0.050000   25.000000  OUTLET    
S12173319        0.010000   0.100000   0.050000   0.050000   25.000000  OUTLET    
S12174347        0.010000   0.100000   0.050000   0.050000   25.000000  OUTLET    
S12176343        0.010000   0.100000   0.050000   0.050000   25.000000  OUTLET    
S13163310        0.010000   0.100000   0.050000   0.050000   25.000000  OUTLET    
S13165311        0.010000   0.100000   0.050000   0.050000   25.000000  OUTLET    
S13165319        0.010000   0.100000   0.050000   0.050000   25.000000  OUTLET    
S13171001        0.010000   0.100000   0.050000   0.050000   25.000000  OUTLET    
S13171331        0.010000   0.100000   0.050000   0.050000   25.000000  OUTLET    
S13171346        0.010000   0.100000   0.050000   0.050000   25.000000  OUTLET    
S13174005        0.010000   0.100000   0.050000   0.050000   25.000000  OUTLET    
S13174007        0.010000   0.100000   0.050000   0.050000   25.000000  OUTLET    
S13174310        0.010000   0.100000   0.050000   0.050000   25.000000  OUTLET    
S13174332        0.010000   0.100000   0.050000   0.050000   25.000000  OUTLET    
S13176008        0.010000   0.100000   0.050000   0.050000   25.000000  OUTLET    
S13176009        0.010000   0.100000   0.050000   0.050000   25.000000  OUTLET    
S14175001        0.010000   0.100000   0.050000   0.050000   25.000000  OUTLET    
S14184001        0.010000   0.100000   0.050000   0.050000   25.000000  OUTLET    

[INFILTRATION]
;;Subcatchment   MaxRate    MinRate    Decay      DryTime    MaxInfil  
;;-------------- ---------- ---------- ---------- ---------- ----------
BRI_1            0.000000   0.000000   0.000000   999.000000 0.000000  
BRI_2            0.000000   0.000000   0.000000   999.000000 0.000000  
BRI_3            0.000000   0.000000   0.000000   999.000000 0.000000  
BRI_4            0.000000   0.000000   0.000000   999.000000 0.000000  
BRI_5            0.000000   0.000000   0.000000   999.000000 0.000000  
BRI_6            0.000000   0.000000   0.000000   999.000000 0.000000  
BRI_7            0.000000   0.000000   0.000000   999.000000 0.000000  
BRI_8            0.000000   0.000000   0.000000   999.000000 0.000000  
BRI_9            0.000000   0.000000   0.000000   999.000000 0.000000  
RUDOW1           0.000000   0.000000   0.000000   999.000000 0.000000  
RUDOW10          0.000000   0.000000   0.000000   999.000000 0.000000  
RUDOW11          0.000000   0.000000   0.000000   999.000000 0.000000  
RUDOW12          0.000000   0.000000   0.000000   999.000000 0.000000  
RUDOW13          0.000000   0.000000   0.000000   999.000000 0.000000  
RUDOW2           0.000000   0.000000   0.000000   999.000000 0.000000  
RUDOW3           0.000000   0.000000   0.000000   999.000000 0.000000  
RUDOW4           0.000000   0.000000   0.000000   999.000000 0.000000  
RUDOW5           0.000000   0.000000   0.000000   999.000000 0.000000  
RUDOW6           0.000000   0.000000   0.000000   999.000000 0.000000  
RUDOW7           0.000000   0.000000   0.000000   999.000000 0.000000  
RUDOW8           0.000000   0.000000   0.000000   999.000000 0.000000  
RUDOW9           0.000000   0.000000   0.000000   999.000000 0.000000  
S09162706        3.000000   0.500000   4.000000   7.000000   0.000000  
S09171318        3.000000   0.500000   4.000000   7.000000   0.000000  
S09173313        3.000000   0.500000   4.000000   7.000000   0.000000  
S09173335        3.000000   0.500000   4.000000   7.000000   0.000000  
S10151329        3.000000   0.500000   4.000000   7.000000   0.000000  
S10153328        3.000000   0.500000   4.000000   7.000000   0.000000  
S10153903        3.000000   0.500000   4.000000   7.000000   0.000000  
S10155005        3.000000   0.500000   4.000000   7.000000   0.000000  
S10155317        3.000000   0.500000   4.000000   7.000000   0.000000  
S10161307        3.000000   0.500000   4.000000   7.000000   0.000000  
S10162320        3.000000   0.500000   4.000000   7.000000   0.000000  
S10162328        3.000000   0.500000   4.000000   7.000000   0.000000  
S10163002        3.000000   0.500000   4.000000   7.000000   0.000000  
S10163004        3.000000   0.500000   4.000000   7.000000   0.000000  
S10164321        3.000000   0.500000   4.000000   7.000000   0.000000  
S10164341        3.000000   0.500000   4.000000   7.000000   0.000000  
S10166002        3.000000   0.500000   4.000000   7.000000   0.000000  
S10173308        3.000000   0.500000   4.000000   7.000000   0.000000  
S10173317        3.000000   0.500000   4.000000   7.000000   0.000000  
S10175004        3.000000   0.500000   4.000000   7.000000   0.000000  
S10176316        3.000000   0.500000   4.000000   7.000000   0.000000  
S10176332        3.000000   0.500000   4.000000   7.000000   0.000000  
S10176901        3.000000   0.500000   4.000000   7.000000   0.000000  
S11151004        3.000000   0.500000   4.000000   7.000000   0.000000  
S11151336        3.000000   0.500000   4.000000   7.000000   0.000000  
S11153001        3.000000   0.500000   4.000000   7.000000   0.000000  
S11153002        3.000000   0.500000   4.000000   7.000000   0.000000  
S11153003        3.000000   0.500000   4.000000   7.000000   0.000000  
S11153323        3.000000   0.500000   4.000000   7.000000   0.000000  
S11156302        3.000000   0.500000   4.000000   7.000000   0.000000  
S11156304        3.000000   0.500000   4.000000   7.000000   0.000000  
S11161321        3.000000   0.500000   4.000000   7.000000   0.000000  
S11161341        3.000000   0.500000   4.000000   7.000000   0.000000  
S11162001        3.000000   0.500000   4.000000   7.000000   0.000000  
S11163303        3.000000   0.500000   4.000000   7.000000   0.000000  
S11163306        3.000000   0.500000   4.000000   7.000000   0.000000  
S11164345        3.000000   0.500000   4.000000   7.000000   0.000000  
S11165315        3.000000   0.500000   4.000000   7.000000   0.000000  
S11166347        3.000000   0.500000   4.000000   7.000000   0.000000  
S11166353        3.000000   0.500000   4.000000   7.000000   0.000000  
S11172321        3.000000   0.500000   4.000000   7.000000   0.000000  
S11172908        3.000000   0.500000   4.000000   7.000000   0.000000  
S11172931        3.000000   0.500000   4.000000   7.000000   0.000000  
S11174318        3.000000   0.500000   4.000000   7.000000   0.000000  
S12155313        3.000000   0.500000   4.000000   7.000000   0.000000  
S12155902        3.000000   0.500000   4.000000   7.000000   0.000000  
S12161051        3.000000   0.500000   4.000000   7.000000   0.000000  
S12161318        3.000000   0.500000   4.000000   7.000000   0.000000  
S12161323        3.000000   0.500000   4.000000   7.000000   0.000000  
S12162334        3.000000   0.500000   4.000000   7.000000   0.000000  
S12164002        3.000000   0.500000   4.000000   7.000000   0.000000  
S12164003        3.000000   0.500000   4.000000   7.000000   0.000000  
S12164005        3.000000   0.500000   4.000000   7.000000   0.000000  
S12164006        3.000000   0.500000   4.000000   7.000000   0.000000  
S12164310        3.000000   0.500000   4.000000   7.000000   0.000000  
S12165337        3.000000   0.500000   4.000000   7.000000   0.000000  
S12166330        3.000000   0.500000   4.000000   7.000000   0.000000  
S12171001        3.000000   0.500000   4.000000   7.000000   0.000000  
S12171302        3.000000   0.500000   4.000000   7.000000   0.000000  
S12172342        3.000000   0.500000   4.000000   7.000000   0.000000  
S12173315        3.000000   0.500000   4.000000   7.000000   0.000000  
S12173319        3.000000   0.500000   4.000000   7.000000   0.000000  
S12174347        3.000000   0.500000   4.000000   7.000000   0.000000  
S12176343        3.000000   0.500000   4.000000   7.000000   0.000000  
S13163310        3.000000   0.500000   4.000000   7.000000   0.000000  
S13165311        3.000000   0.500000   4.000000   7.000000   0.000000  
S13165319        3.000000   0.500000   4.000000   7.000000   0.000000  
S13171001        3.000000   0.500000   4.000000   7.000000   0.000000  
S13171331        3.000000   0.500000   4.000000   7.000000   0.000000  
S13171346        3.000000   0.500000   4.000000   7.000000   0.000000  
S13174005        3.000000   0.500000   4.000000   7.000000   0.000000  
S13174007        3.000000   0.500000   4.000000   7.000000   0.000000  
S13174310        3.000000   0.500000   4.000000   7.000000   0.000000  
S13174332        3.000000   0.500000   4.000000   7.000000   0.000000  
S13176008        3.000000   0.500000   4.000000   7.000000   0.000000  
S13176009        3.000000   0.500000   4.000000   7.000000   0.000000  
S14175001        3.000000   0.500000   4.000000   7.000000   0.000000  
S14184001        3.000000   0.500000   4.000000   7.000000   0.000000  

[JUNCTIONS]
;;Name           Elevation  MaxDepth   InitDepth  SurDepth   Aponded   
;;-------------- ---------- ---------- ---------- ---------- ----------
0017100A         38.530000  5.000000   0.000000   0.000000   0.000000  
0017100B         38.470000  5.530000   0.000000   0.000000   0.000000  
0017100C         38.420000  6.120000   0.000000   0.000000   0.000000  
0017300F         38.640000  4.420000   0.000000   0.000000   0.000000  
0017300G         38.560000  4.350000   0.000000   0.000000   0.000000  
0017500E         38.710000  3.430000   0.000000   0.000000   0.000000  