[TITLE]

[OPTIONS]
FLOW_UNITS           CMS
INFILTRATION         HORTON
FLOW_ROUTING         KINWAVE
START_DATE           01/21/2014
START_TIME           00:00:00
REPORT_START_DATE    01/21/2014
REPORT_START_TIME    00:00:00
END_DATE             01/21/2014
END_TIME             06:00:00
SWEEP_START          1/1
SWEEP_END            12/31
DRY_DAYS             0
REPORT_STEP          00:15:00
WET_STEP             00:05:00
DRY_STEP             01:00:00
ROUTING_STEP         0:00:30
ALLOW_PONDING        NO
INERTIAL_DAMPING     PARTIAL
VARIABLE_STEP        0.75
LENGTHENING_STEP     0
MIN_SURFAREA         0
NORMAL_FLOW_LIMITED  BOTH
SKIP_STEADY_STATE    NO
FORCE_MAIN_EQUATION  H-W
LINK_OFFSETS         ELEVATION
MIN_SLOPE            0

[EVAPORATION]
;;Type       Parameters
;;---------- ----------
CONSTANT     0.0
DRY_ONLY     NO

[SUBCATCHMENTS]
;;                                                 Total    Pcnt.             Pcnt.    Curb     Snow
;;Name           Raingage         Outlet           Area     Imperv   Width    Slope    Length   Pack
;;-------------- ---------------- ---------------- -------- -------- -------- -------- -------- --------
1                111                111                5        25       500      0.5      0
2                111                111                5        25       500      0.5      0
3                111                111                5        25       500      0.5      0
4                111                111                5        25       500      0.5      0
5                111                111                5        25       500      0.5      0
6                111                111                5        25       500      0.5      0
7                111                111                0        25       500      0.5      0
8                111                111                5        25       500      0.5      0
9                111                111                5        25       500      0.5      0
10               111                111                5        25       500      0.5      0
11               111                111                5        25       500      0.5      0
12               111                111                5        25       500      0.5      0
13               111                111                5        25       500      0.5      0
16               111                111                5        25       500      0.5      0
17               111                111                5        25       500      0.5      0
18               111                111                5        25       500      0.5      0
19               111                111                5        25       500      0.5      0
20               111                111                5        25       500      0.5      0
21               111                111                5        25       500      0.5      0
22               111                111                5        25       500      0.5      0
23               111                111                5        25       500      0.5      0
24               111                111                5        25       500      0.5      0
25               111                111                5        25       500      0.5      0
26               111                111                5        25       500      0.5      0
27               111                111                5        25       500      0.5      0
28               111                111                5        25       500      0.5      0
29               111                111                5        25       500      0.5      0
30               111                111                5        25       500      0.5      0
31               111                111                5        25       500      0.5      0
32               111                111                5        25       500      0.5      0
33               111                111                5        25       500      0.5      0
34               111                111                5        25       500      0.5      0
35               111                111                5        25       500      0.5      0
36               111                111                5        25       500      0.5      0
37               111                111                5        25       500      0.5      0
38               111                111                5        25       500      0.5      0
39               111                111                5        25       500      0.5      0
40               111                111                5        25       500      0.5      0
41               111                111                5        25       500      0.5      0
42               111                111                5        25       500      0.5      0
43               111                111                5        25       500      0.5      0
44               111                111                5        25       500      0.5      0
45               111                111                5        25       500      0.5      0
46               111                111                5        25       500      0.5      0
47               111                111                5        25       500      0.5      0
48               111                111                5        25       500      0.5      0
49               111                111                5        25       500      0.5      0
50               111                111                5        25       500      0.5      0
51               111                111                5        25       500      0.5      0
52               111                111                5        25       500      0.5      0
53               111                111                5        25       500      0.5      0
54               111                111                5        25       500      0.5      0
55               111                111                5        25       500      0.5      0
56               111                111                5        25       500      0.5      0
57               111                111                5        25       500      0.5      0
58               111                111                5        25       500      0.5      0
59               111                111                5        25       500      0.5      0
60               111                111                5        25       500      0.5      0
61               111                111                5        25       500      0.5      0
62               111                111                5        25       500      0.5      0
63               111                111                0.01     25       500      0.5      0
64               111                111                5        25       500      0.5      0
73               111                111                5        25       500      0.5      0
74               111                111                5        25       500      0.5      0
75               111                111                5        25       500      0.5      0
80               111                111                5        25       500      0.5      0
83               111                111                5        25       500      0.5      0
84               111                111                5        25       500      0.5      0
85               111                111                5        25       500      0.5      0
122              111                111                5        25       500      0.5      0
123              111                111                5        25       500      0.5      0
124              111                111                5        25       500      0.5      0
125              111                111                5        25       500      0.5      0
126              111                111                5        25       500      0.5      0

[SUBAREAS]
;;Subcatchment   N-Imperv   N-Perv     S-Imperv   S-Perv     PctZero    RouteTo    PctRouted
;;-------------- ---------- ---------- ---------- ---------- ---------- ---------- ----------
1                0.01       0.1        0.05       0.05       25         OUTLET
2                0.01       0.1        0.05       0.05       25         OUTLET
3                0.01       0.1        0.05       0.05       25         OUTLET
4                0.01       0.1        0.05       0.05       25         OUTLET
5                0.01       0.1        0.05       0.05       25         OUTLET
6                0.01       0.1        0.05       0.05       25         OUTLET
7                0.01       0.1        0.05       0.05       25         OUTLET
8                0.01       0.1        0.05       0.05       25         OUTLET
9                0.01       0.1        0.05       0.05       25         OUTLET
10               0.01       0.1        0.05       0.05       25         OUTLET
11               0.01       0.1        0.05       0.05       25         OUTLET
12               0.01       0.1        0.05       0.05       25         OUTLET
13               0.01       0.1        0.05       0.05       25         OUTLET
16               0.01       0.1        0.05       0.05       25         OUTLET
17               0.01       0.1        0.05       0.05       25         OUTLET
18               0.01       0.1        0.05       0.05       25         OUTLET
19               0.01       0.1        0.05       0.05       25         OUTLET
20               0.01       0.1        0.05       0.05       25         OUTLET
21               0.01       0.1        0.05       0.05       25         OUTLET
22               0.01       0.1        0.05       0.05       25         OUTLET
23               0.01       0.1        0.05       0.05       25         OUTLET
24               0.01       0.1        0.05       0.05       25         OUTLET
25               0.01       0.1        0.05       0.05       25         OUTLET
26               0.01       0.1        0.05       0.05       25         OUTLET
27               0.01       0.1        0.05       0.05       25         OUTLET
28               0.01       0.1        0.05       0.05       25         OUTLET
29               0.01       0.1        0.05       0.05       25         OUTLET
30               0.01       0.1        0.05       0.05       25         OUTLET
31               0.01       0.1        0.05       0.05       25         OUTLET
32               0.01       0.1        0.05       0.05       25         OUTLET
33               0.01       0.1        0.05       0.05       25         OUTLET
34               0.01       0.1        0.05       0.05       25         OUTLET
35               0.01       0.1        0.05       0.05       25         OUTLET
36               0.01       0.1        0.05       0.05       25         OUTLET
37               0.01       0.1        0.05       0.05       25         OUTLET
38               0.01       0.1        0.05       0.05       25         OUTLET
39               0.01       0.1        0.05       0.05       25         OUTLET
40               0.01       0.1        0.05       0.05       25         OUTLET
41               0.01       0.1        0.05       0.05       25         OUTLET
42               0.01       0.1        0.05       0.05       25         OUTLET
43               0.01       0.1        0.05       0.05       25         OUTLET
44               0.01       0.1        0.05       0.05       25         OUTLET
45               0.01       0.1        0.05       0.05       25         OUTLET
46               0.01       0.1        0.05       0.05       25         OUTLET
47               0.01       0.1        0.05       0.05       25         OUTLET
48               0.01       0.1        0.05       0.05       25         OUTLET
49               0.01       0.1        0.05       0.05       25         OUTLET
50               0.01       0.1        0.05       0.05       25         OUTLET
51               0.01       0.1        0.05       0.05       25         OUTLET
52               0.01       0.1        0.05       0.05       25         OUTLET
53               0.01       0.1        0.05       0.05       25         OUTLET
54               0.01       0.1        0.05       0.05       25         OUTLET
55               0.01       0.1        0.05       0.05       25         OUTLET
56               0.01       0.1        0.05       0.05       25         OUTLET
57               0.01       0.1        0.05       0.05       25         OUTLET
58               0.01       0.1        0.05       0.05       25         OUTLET
59               0.01       0.1        0.05       0.05       25         OUTLET
60               0.01       0.1        0.05       0.05       25         OUTLET
61               0.01       0.1        0.05       0.05       25         OUTLET
62               0.01       0.1        0.05       0.05       25         OUTLET
63               0.01       0.1        0.05       0.05       25         OUTLET
64               0.01       0.1        0.05       0.05       25         OUTLET
73               0.01       0.1        0.05       0.05       25         OUTLET
74               0.01       0.1        0.05       0.05       25         OUTLET
75               0.01       0.1        0.05       0.05       25         OUTLET
80               0.01       0.1        0.05       0.05       25         OUTLET
83               0.01       0.1        0.05       0.05       25         OUTLET
84               0.01       0.1        0.05       0.05       25         OUTLET
85               0.01       0.1        0.05       0.05       25         OUTLET
122              0.01       0.1        0.05       0.05       25         OUTLET
123              0.01       0.1        0.05       0.05       25         OUTLET
124              0.01       0.1        0.05       0.05       25         OUTLET
125              0.01       0.1        0.05       0.05       25         OUTLET
126              0.01       0.1        0.05       0.05       25         OUTLET

[INFILTRATION]
;;Subcatchment   MaxRate    MinRate    Decay      DryTime    MaxInfil
;;-------------- ---------- ---------- ---------- ---------- ----------
1                42.3       25         4          7          0
2                42.3       25         4          7          0
3                42.3       25         4          7          0
4                42.3       25         4          7          0
5                42.3       25         4          7          0
6                42.3       25         4          7          0
7                42.3       25         4          7          0
8                42.3       25         4          7          0
9                42.3       25         4          7          0
10               42.3       25         4          7          0
11               42.3       25         4          7          0
12               42.3       25         4          7          0
13               42.3       25         4          7          0
16               42.3       25         4          7          0
17               42.3       25         4          7          0
18               42.3       25         4          7          0
19               42.3       25         4          7          0
20               42.3       25         4          7          0
21               42.3       25         4          7          0
22               42.3       25         4          7          0
23               42.3       25         4          7          0
24               42.3       25         4          7          0
25               42.3       25         4          7          0
26               42.3       25         4          7          0
27               42.3       25         4          7          0
28               42.3       25         4          7          0
29               42.3       25         4          7          0
30               42.3       25         4          7          0
31               42.3       25         4          7          0
32               42.3       25         4          7          0
33               42.3       25         4          7          0
34               42.3       25         4          7          0
35               42.3       25         4          7          0
36               42.3       25         4          7          0
37               42.3       25         4          7          0
38               42.3       25         4          7          0
39               42.3       25         4          7          0
40               42.3       25         4          7          0
41               42.3       25         4          7          0
42               42.3       25         4          7          0
43               42.3       25         4          7          0
44               42.3       25         4          7          0
45               42.3       25         4          7          0
46               42.3       25         4          7          0
47               42.3       25         4          7          0
48               42.3       25         4          7          0
49               42.3       25         4          7          0
50               42.3       25         4          7          0
51               42.3       25         4          7          0
52               42.3       25         4          7          0
53               42.3       25         4          7          0
54               42.3       25         4          7          0
55               42.3       25         4          7          0
56               42.3       25         4          7          0
57               42.3       25         4          7          0
58               42.3       25         4          7          0
59               42.3       25         4          7          0
60               42.3       25         4          7          0
61               42.3       25         4          7          0
62               42.3       25         4          7          0
63               42.3       25         4          7          0
64               42.3       25         4          7          0
73               42.3       25         4          7          0
74               42.3       25         4          7          0
75               42.3       25         4          7          0
80               42.3       25         4          7          0
83               42.3       25         4          7          0
84               42.3       25         4          7          0
85               42.3       25         4          7          0
122              42.3       25         4          7          0
123              42.3       25         4          7          0
124              42.3       25         4          7          0
125              42.3       25         4          7          0
126              42.3       25         4          7          0

[LID_CONTROLS]
;;               Type/Layer Parameters
;;-------------- ---------- ----------
Vegetative_Swale VS
Vegetative_Swale SURFACE    150        0.5        0.1        1.0        3

[LID_USAGE]
;;Subcatchment   LID Process      Number  Area       Width      InitSatur  FromImprv  ToPerv     Report File
;;-------------- ---------------- ------- ---------- ---------- ---------- ---------- ---------- -----------

[JUNCTIONS]
;;               Invert     Max.       Init.      Surcharge  Ponded
;;Name           Elev.      Depth      Depth      Depth      Area
;;-------------- ---------- ---------- ---------- ---------- ----------
D-1001           108.19     2.92       0          0          7
DB               109.2      1.87       0          0          7
D-1003           107.58     3.58       0          0          7
D-1002           107.71     3.36       0          0          7
D-1004           108.60     2.84       0          0          7
D-104            109.30     3.26       0          0          7
D-102            108.66     2.98       0          0          7
D-1005           109.32     1.86       0          0          7
D-101            108.55     2.74       0          0          7
D-5              108.38     2.92       0          0          7
D-110            109.22     2.54       0          0          7
76               0          0          0          0          7
D-10             107.53     3.21       0          0          7
D-30             107.96     3.67       0          0          7
D-40             108.42     2.95       0          0          7
D-6              109.39     2.51       0          0          7
D-42             110.84     3.01       0          0          7
D-41             110.25     2.98       0          0          7
D-7              110.21     2.19       0          0          7
D-1              110.65     2.25       0          2.25       7
;1050 diameter manhole on Lefeuvre Ave.
D-2              112.89     2.21       0          0          7
D-43             111.50     3.54       0          0          7
D-45             111.12     3.13       0          0          7
D-46             110.72     2.91       0          0          7
D-47             109.66     0          0          0          7
D-44             111.46     3.38       0          0          7
95               0          0          0          0          7
D-94             109.57     1.88       0          0          7
D-93             109.21     1.77       0          0          7
D-92             108.78     1.47       0          0          7
D-50             109.03     2.57       0          0          7
D-91             108.76     3.41       0          0          7
D-90             107.70     2.65       0          0          7
102              0          0          0          0          7
103              0          0          0          0          7
104              0          0          0          0          7
D-26             105.67     3.36       0          0          7
D-25             107.22     3.17       0          0          7
D-21             109.02     1.89       0          0          7
D-31             108.42     3.07       0          0          7
D-20             108.35     3.12       0          0          7
D-32             108.61     2.31       0          0          7
111              0          0          0          0          7
D-81             104.21     3.38       0          0          7
D-80             105.65     2.33       0          0          7
D-70             106.30     3.36       0          0          7
D-15             104.98     4.39       0          0          7
D-71             104.75     4.52       0          0          7
D-14             105.73     4.68       0          0          7
D-11             106.94     3.87       0          0          7
D-13             106.41     3.99       0          0          7
D-60             107.24     4.22       0          0          7
D-12             106.55     3.93       0          0          7
D-105            109.38     3.31       0          0          7
D-106            109.53     2.42       0          0          7
DCO              109.78     1.25       0          0          7
D-111            109.52     1.98       0          0          7
D-111A           109.60     1.98       0          0          7
D-112            109.80     2.02       0          0          7
D-113            109.91     2.0        0          0          7
D-114            110.10     2.18       0          0          7
D-115            110.17     2.11       0          0          7
D-116            110.35     2.25       0          0          7
D-103            108.89     3.21       0          0          7
D-801            106.72     3.19       0          0          7
DCO-Pullman      105.12     2.26       0          0          7
TANK             103.73     0          0          0          7
DCO-3            105.31     3.75       0          0          7
D-802            105.90     2.58       0          0          7

[CONDUITS]
;;               Inlet            Outlet                      Manning    Inlet      Outlet     Init.      Max.
;;Name           Node             Node             Length     N          Offset     Offset     Flow       Flow
;;-------------- ---------------- ---------------- ---------- ---------- ---------- ---------- ---------- ----------
C-2              D-1              D-7              31.34      0.01       110.65     110.23     0          0
C-1              D-2              D-1              60.31      0.01       112.89     110.75     0          0
C-3              D-7              D-6              89.21      0.012      110.21     109.41     0          0
C-5              D-116            D-115            56.2       0.01       110.35     110.24     0          0
C-6              D-115            D-114            14.20      0.01       110.17     110.12     0          0
C-7              D-114            D-113            63.95      0.01       110.10     109.94     0          0
C-8              D-113            D-112            17.15      0.01       109.91     109.80     0          0
C-9              D-112            D-111A           54.8       0.01       109.80     109.63     0          0
C10              D-111A           D-111            15.75      0.01       109.61     109.54     0          0
C-11             D-111            D-110            65.5       0.01       109.52     109.29     0          0
C-12             DCO              D-106            71.10      0.01       109.78     109.60     0          0
C-13             D-106            D-105            68.95      0.01       109.53     109.38     0          0
C-14             D-105            D-104            24.38      0.012      109.38     109.33     0          0
C-15             D-104            D-103            70.75      0.01       109.27     108.90     0          0
C-16             D-103            D-102            85.95      0.012      108.89     108.66     0          0
C-17             D-102            D-101            64.95      0.012      108.66     108.50     0          0
C-4A             D-6              D-110            17.59      0.01       109.39     109.22     0          0
C-4B             D-110            D-101            76.85      0.01       109.22     108.48     0          0
C-4C             D-101            D-5              4.94       0.01       108.48     108.44     0          0
C-18             D-1001           D-1002           93.15      0.012      108.19     107.72     0          0
C-21             D-1005           D-1004           66.15      0.01       109.32     108.71     0          0
C-20             D-1004           D-1003           71.92      0.012      108.60     107.77     0          0
C-19             D-1002           D-1003           14.51      0.012      107.71     107.66     0          0
C-22             DB               D-1004           44         0.01       109.2      108.7      0          0
D-22             D-11             D-12             69.81      0.012      106.94     106.56     0          0
C-23             D-12             D-13             21.74      0.012      106.55     106.42     0          0
C-24             D-1003           D-60             37.25      0.012      107.58     107.26     0          0
C-25             D-60             D-12             46.1       0.012      107.24     106.83     0          0
C-26             D-13             D-14             150.44     0.012      106.41     105.75     0          0
C-27             D-14             D-15             142.71     0.012      105.73     105.01     0          0
C-28             D-5              D-10             79.82      0.01       108.38     107.59     0          0
C-29             D-10             D-11             86.41      0.012      107.53     106.99     0          0
C-30             D-32             D-31             40.49      0.01       108.61     108.52     0          0
C-31             D-31             D-30             93.98      0.01       108.42     107.98     0          0
C-32             D-30             D-10             31.75      0.01       107.96     107.73     0          0
C-33             D-40             D-10             78.99      0.01       108.42     107.71     0          0
C-34             D-41             D-40             68.17      0.01       110.25     108.63     0          0
C-35             D-42             D-41             22.70      0.01       110.84     110.31     0          0
C-36             D-43             D-42             45.97      0.01       111.50     110.90     0          0
C-37             D-44             D-45             20.57      0.01       111.46     111.17     0          0
C-38             D-45             D-46             23.09      0.01       111.12     110.76     0          0
C-39             D-46             D-47             35.15      0.01       110.72     109.75     0          0
C-40             D-47             D-31             112.69     0.01       109.66     108.47     0          0
C-41             D-50             D-40             95.25      0.01       109.03     108.54     0          0
C-42             D-32             D-91             43.45      0.01       108.76     108.64     0          0
C-43             D-92             D-91             41.24      0.01       108.78     108.77     0          0
C-44             D-80             D-81             78.72      0.01       105.65     105.06     0          0
C-45             DCO-Pullman      D-81             39.94      0.01       105.12     104.88     0          0
C-46             D-81             TANK             64.85      0.012      104.21     103.73     0          0
C-47             D-71             D-81             73.03      0.012      104.75     104.36     0          0
C-48             D-25             D-26             106.89     0.012      107.22     105.85     0          0
C-49             D-26             DCO-3            7.83       0.012      105.39     105.31     0          0