[TITLE]
;;Project Title/Notes
Scenario Run :  ONEYEARMODEL
Example 1

[OPTIONS]
;;Option             Value
FLOW_UNITS           CFS
INFILTRATION         HORTON
FLOW_ROUTING         DYNWAVE
LINK_OFFSETS         DEPTH
MIN_SLOPE            0
ALLOW_PONDING        NO
SKIP_STEADY_STATE    NO

START_DATE           01/01/2010
START_TIME           00:00:00
REPORT_START_DATE    01/01/2010
REPORT_START_TIME    00:00:00
END_DATE             12/30/2010
END_TIME             23:00:00
SWEEP_START          01/01
SWEEP_END            12/31
DRY_DAYS             5.000000
REPORT_STEP          01:00:00
WET_STEP             00:15:00
DRY_STEP             01:00:00
ROUTING_STEP         0:01:00 

INERTIAL_DAMPING     NONE
NORMAL_FLOW_LIMITED  SLOPE
FORCE_MAIN_EQUATION  H-W
VARIABLE_STEP        0.75
LENGTHENING_STEP     30
MIN_SURFAREA         0
MAX_TRIALS           8
HEAD_TOLERANCE       0.001000
SYS_FLOW_TOL         5
LAT_FLOW_TOL         5
MINIMUM_STEP         0
THREADS              1

[EVAPORATION]
;;Data Source    Parameters
;;-------------- ----------------
CONSTANT         0.0
DRY_ONLY         NO

[RAINGAGES]
;;Name           Format    Interval SCF      Source    
;;-------------- --------- ------ ------ ----------
RG1              INTENSITY 1.000000 1.000000 TIMESERIES TS1             

[SUBCATCHMENTS]
;;Name           Rain Gage        Outlet           Area     %Imperv  Width    %Slope   CurbLen  SnowPack        
;;-------------- ---------------- ---------------- -------- -------- -------- -------- -------- ----------------
1                RG1              9                10.000000 50.000000 500.000000 0.010000 0.000000                 
2                RG1              10               10.000000 50.000000 500.000000 0.010000 0.000000                 
3                RG1              13               5.000000 50.000000 500.000000 0.010000 0.000000                 
4                RG1              22               5.000000 50.000000 500.000000 0.010000 0.000000                 
5                RG1              15               15.000000 50.000000 500.000000 0.010000 0.000000                 
6                RG1              23               12.000000 10.000000 500.000000 0.010000 0.000000                 
7                RG1              19               4.000000 10.000000 500.000000 0.010000 0.000000                 
8                RG1              17               10.000000 10.000000 500.000000 0.010000 0.000000                 

[SUBAREAS]
;;Subcatchment   N-Imperv   N-Perv     S-Imperv   S-Perv     PctZero    RouteTo    PctRouted 
;;-------------- ---------- ---------- ---------- ---------- ---------- ---------- ----------
1                0.011000   0.100000   0.050000   0.050000   25.000000  OUTLET    
2                0.011000   0.100000   0.050000   0.050000   25.000000  OUTLET    
3                0.011000   0.100000   0.050000   0.050000   25.000000  OUTLET    
4                0.011000   0.100000   0.050000   0.050000   25.000000  OUTLET    
5                0.011000   0.100000   0.050000   0.050000   25.000000  OUTLET    
6                0.011000   0.100000   0.050000   0.050000   25.000000  OUTLET    
7                0.011000   0.100000   0.050000   0.050000   25.000000  OUTLET    
8                0.011000   0.100000   0.050000   0.050000   25.000000  OUTLET    

[INFILTRATION]
;;Subcatchment   MaxRate    MinRate    Decay      DryTime    MaxInfil  
;;-------------- ---------- ---------- ---------- ---------- ----------
1                0.350000   0.250000   4.140000   0.500000   0.000000  
2                0.700000   0.300000   4.140000   0.500000   0.000000  
3                0.700000   0.300000   4.140000   0.500000   0.000000  
4                0.700000   0.300000   4.140000   0.500000   0.000000  
5                0.700000   0.300000   4.140000   0.500000   0.000000  
6                0.700000   0.300000   4.140000   0.500000   0.000000  
7                0.700000   0.300000   4.140000   0.500000   0.000000  
8                0.700000   0.300000   4.140000   0.500000   0.000000  

[JUNCTIONS]
;;Name           Elevation  MaxDepth   InitDepth  SurDepth   Aponded   
;;-------------- ---------- ---------- ---------- ---------- ----------
; Flow and Depth
10               995.000000 3.000000   0.000000   0.000000   0.000000  
; Flow and Depth
13               995.000000 3.000000   0.000000   0.000000   0.000000  
; Flow and Depth
14               990.000000 3.000000   0.000000   0.000000   0.000000  
; Flow and Depth
15               987.000000 3.000000   0.000000   0.000000   0.000000  
; Flow and Depth
16               985.000000 3.000000   0.000000   0.000000   0.000000  
; Flow and Depth
17               980.000000 3.000000   0.000000   0.000000   0.000000  
; Flow and Depth
19               1010.000000 3.000000   0.000000   0.000000   0.000000  
; Flow and Depth
20               1005.000000 3.000000   0.000000   0.000000   0.000000  
; Flow and Depth
21               990.000000 3.000000   0.000000   0.000000   0.000000  
; Flow and Depth
22               987.000000 3.000000   0.000000   0.000000   0.000000  
; Flow and Depth
23               990.000000 3.000000   0.000000   0.000000   0.000000  
; Flow and Depth
24               984.000000 3.000000   0.000000   0.000000   0.000000  
; Flow and Depth
9                1000.000000 3.000000   0.000000   0.000000   0.000000  

[OUTFALLS]
;;Name           Elevation  Type       Stage Data       Gated    Route To        
;;-------------- ---------- ---------- ---------------- -------- ----------------
18               975.000000 FREE                        NO                       

[CONDUITS]
;;Name           From Node        To Node          Length     Roughness  InOffset   OutOffset  InitFlow   MaxFlow   
;;-------------- ---------------- ---------------- ---------- ---------- ---------- ---------- ---------- ----------
1                9                10               400.000000 0.010000   0.000000   0.000000   0.000000   0.000000  
10               17               18               400.000000 0.010000   0.000000   0.000000   0.000000   0.000000  
11               13               14               400.000000 0.010000   0.000000   0.000000   0.000000   0.000000  
12               14               15               400.000000 0.010000   0.000000   0.000000   0.000000   0.000000  
13               15               16               400.000000 0.010000   0.000000   0.000000   0.000000   0.000000  
14               23               24               400.000000 0.010000   0.000000   0.000000   0.000000   0.000000  
15               16               24               100.000000 0.010000   0.000000   0.000000   0.000000   0.000000  
16               24               17               400.000000 0.010000   0.000000   0.000000   0.000000   0.000000  
4                19               20               200.000000 0.010000   0.000000   0.000000   0.000000   0.000000  
5                20               21               200.000000 0.010000   0.000000   0.000000   0.000000   0.000000  
6                10               21               400.000000 0.010000   0.000000   1.000000   0.000000   0.000000  
7                21               22               300.000000 0.010000   1.000000   1.000000   0.000000   0.000000  
8                22               16               300.000000 0.010000   0.000000   0.000000   0.000000   0.000000  

[XSECTIONS]
;;Link           Shape        Geom1            Geom2      Geom3      Geom4      Barrels    Culvert   
;;-------------- ------------ ---------------- ---------- ---------- ---------- ---------- ----------
1                CIRCULAR     1.500000         0.000000   0.000000   0.000000   1          0         
10               CIRCULAR     2.000000         0.000000   0.000000   0.000000   1          0         
11               CIRCULAR     1.500000         0.000000   0.000000   0.000000   1          0         
12               CIRCULAR     1.500000         0.000000   0.000000   0.000000   1          0         
13               CIRCULAR     1.500000         0.000000   0.000000   0.000000   1          0         
14               CIRCULAR     1.000000         0.000000   0.000000   0.000000   1          0         
15               CIRCULAR     2.000000         0.000000   0.000000   0.000000   1          0         
16               CIRCULAR     2.000000         0.000000   0.000000   0.000000   1          0         
4                CIRCULAR     1.000000         0.000000   0.000000   0.000000   1          0         
5                CIRCULAR     1.000000         0.000000   0.000000   0.000000   1          0         
6                CIRCULAR     1.000000         0.000000   0.000000   0.000000   1          0         
7                CIRCULAR     2.000000         0.000000   0.000000   0.000000   1          0         
8                CIRCULAR     2.000000         0.000000   0.000000   0.000000   1          0         

[LOSSES]
;;Link           Kentry     Kexit      Kavg       Flap Gate  Seepage   
;;-------------- ---------- ---------- ---------- ---------- ----------
1                0.000000   0.000000   0.000000   NO         0.000000  
10               0.000000   0.000000   0.000000   NO         0.000000  
11               0.000000   0.000000   0.000000   NO         0.000000  
12               0.000000   0.000000   0.000000   NO         0.000000  
13               0.000000   0.000000   0.000000   NO         0.000000  
14               0.000000   0.000000   0.000000   NO         0.000000  
15               0.000000   0.000000   0.000000   NO         0.000000  
16               0.000000   0.000000   0.000000   NO         0.000000  
4                0.000000   0.000000   0.000000   NO         0.000000  
5                0.000000   0.000000   0.000000   NO         0.000000  
6                0.000000   0.000000   0.000000   NO         0.000000  
7                0.000000   0.000000   0.000000   NO         0.000000  
8                0.000000   0.000000   0.000000   NO         0.000000  

[CONTROLS]


[POLLUTANTS]
;;Name           Units  Crain      Cgw        Crdii      Kdecay     SnowOnly   Co-Pollutant     Co-Frac    Cdwf       Cinit     
;;-------------- ------ ---------- ---------- ---------- ---------- ---------- ---------------- ---------- ---------- ----------
TSS              MG/L   0.000000   0.000000   0.000000   0.000000   NO         *                0.000000   0.000000   0.000000  
LEAD             UG/L   0.000000   0.000000   0.000000   0.000000   NO         TSS              0.200000   0.000000   0.000000  

[LANDUSES]
;;               Sweeping   Fraction   Last      
;;Name           Interval   Available  Swept     
;;-------------- ---------- ---------- ----------
RESIDENTIAL      0.000000   0.000000   0.000000  
UNDEVELOPED      0.000000   0.000000   0.000000  

[COVERAGES]
;;Subcatchment   Land Use         Percent   
;;-------------- ---------------- ----------
1                RESIDENTIAL      100.000000
2                RESIDENTIAL      50.000000 
2                UNDEVELOPED      50.000000 
3                RESIDENTIAL      100.000000
4                RESIDENTIAL      50.000000 
4                UNDEVELOPED      50.000000 
5                RESIDENTIAL      100.000000
6                UNDEVELOPED      100.000000
7                UNDEVELOPED      100.000000
8                UNDEVELOPED      100.000000

[LOADINGS]
;;Subcatchment   Pollutant        Buildup   
;;-------------- ---------------- ----------

[BUILDUP]
;;Land Use       Pollutant        Function   Coeff1     Coeff2     Coeff3     Per Unit  
;;-------------- ---------------- ---------- ---------- ---------- ---------- ----------
RESIDENTIAL      TSS              SAT        50.000000  0.000000   2.000000   AREA      
RESIDENTIAL      LEAD             NONE       0.000000   0.000000   0.000000   AREA      
UNDEVELOPED      TSS              SAT        100.000000 0.000000   3.000000   AREA      
UNDEVELOPED      LEAD             NONE       0.000000   0.000000   0.000000   AREA      

[WASHOFF]
;;Land Use       Pollutant        Function   Coeff1     Coeff2     SweepRmvl  BmpRmvl   
;;-------------- ---------------- ---------- ---------- ---------- ---------- ----------
RESIDENTIAL      TSS              EXP        0.100000   1.000000   0.000000   0.000000  
RESIDENTIAL      LEAD             EMC        0.000000   0.000000   0.000000   0.000000  
UNDEVELOPED      TSS              EXP        0.100000   0.700000   0.000000   0.000000  
UNDEVELOPED      LEAD             EMC        0.000000   0.000000   0.000000   0.000000  

[INFLOWS]
;;Node           Constituent      Time Series      Type     Mfactor  Sfactor  Baseline Pattern
;;-------------- ---------------- ---------------- -------- -------- -------- -------- --------
19               FLOW             RDIITS           FLOW     1.0      0.500000         
20               FLOW             RDIITS           FLOW     1.0      0.500000         

[DWF]
;;Node           Constituent      Baseline   Patterns  
;;-------------- ---------------- ---------- ----------
10               FLOW             0.032225   "DWF_WKDAY" "WKEND_ZERO" ""
13               FLOW             0.032225   "DWF_WKDAY" "WKEND_ZERO" ""
14               FLOW             0.032225   "DWF_WKDAY" "WKEND_ZERO" ""
15               FLOW             0.032225   "DWF_WKDAY" "WKEND_ZERO" ""
16               FLOW             0.032225   "DWF_WKDAY" "WKEND_ZERO" ""
19               FLOW             0.032225   "DWF_WKDAY" "WKEND_ZERO" ""
20               FLOW             0.032225   "DWF_WKDAY" "WKEND_ZERO" ""
21               FLOW             0.032225   "DWF_WKDAY" "WKEND_ZERO" ""
22               FLOW             0.032225   "DWF_WKDAY" "WKEND_ZERO" ""
23               FLOW             0.032225   "DWF_WKDAY" "WKEND_ZERO" ""
24               FLOW             0.032225   "DWF_WKDAY" "WKEND_ZERO" ""
9                FLOW             0.032225   "DWF_WKDAY" "WKEND_ZERO" ""

[HYDROGRAPHS]
;;Hydrograph     Rain Gage/Month  Response R        T        K        Dmax     Drecov   Dinit   
;;-------------- ---------------- -------- -------- -------- -------- -------- -------- --------
HYDRO1           RG1             
HYDRO1           All              Short    0.055000 1.799000 0.036000 0.000000 0.000000 0.000000
HYDRO1           All              Medium   0.058000 1.320000 4.498000 0.000000 0.000000 0.000000
HYDRO1           All              Long     0.068000 0.219000 105.684000 0.000000 0.000000 0.000000
NODE20RTK        RG1             
NODE20RTK        Jan              Short    0.148000 2.117000 0.028000 0.000000 0.000000 0.000000
NODE20RTK        Jan              Medium   0.123000 8.025000 2.626000 0.000000 0.000000 0.000000
NODE20RTK        Jan              Long     0.096000 0.336000 37.650000 0.000000 0.000000 0.000000
NODE20RTK        Feb              Short    0.148000 2.117000 0.028000 0.000000 0.000000 0.000000
NODE20RTK        Feb              Medium   0.123000 8.025000 2.626000 0.000000 0.000000 0.000000
NODE20RTK        Feb              Long     0.096000 0.336000 37.650000 0.000000 0.000000 0.000000
NODE20RTK        Mar              Short    0.148000 2.117000 0.028000 0.000000 0.000000 0.000000
NODE20RTK        Mar              Medium   0.123000 8.025000 2.626000 0.000000 0.000000 0.000000
NODE20RTK        Mar              Long     0.096000 0.336000 37.650000 0.000000 0.000000 0.000000
NODE20RTK        Apr              Short    0.148000 2.117000 0.028000 0.000000 0.000000 0.000000
NODE20RTK        Apr              Medium   0.123000 8.025000 2.626000 0.000000 0.000000 0.000000
NODE20RTK        Apr              Long     0.096000 0.336000 37.650000 0.000000 0.000000 0.000000
NODE20RTK        May              Short    0.148000 2.117000 0.028000 0.000000 0.000000 0.000000
NODE20RTK        May              Medium   0.123000 8.025000 2.626000 0.000000 0.000000 0.000000
NODE20RTK        May              Long     0.096000 0.336000 37.650000 0.000000 0.000000 0.000000
NODE20RTK        Jun              Short    0.148000 2.117000 0.028000 0.000000 0.000000 0.000000
NODE20RTK        Jun              Medium   0.123000 8.025000 2.626000 0.000000 0.000000 0.000000
NODE20RTK        Jun              Long     0.096000 0.336000 37.650000 0.000000 0.000000 0.000000
NODE20RTK        Jul              Short    0.148000 2.117000 0.028000 0.000000 0.000000 0.000000
NODE20RTK        Jul              Medium   0.123000 8.025000 2.626000 0.000000 0.000000 0.000000
NODE20RTK        Jul              Long     0.096000 0.336000 37.650000 0.000000 0.000000 0.000000
NODE20RTK        Aug              Short    0.148000 2.117000 0.028000 0.000000 0.000000 0.000000
NODE20RTK        Aug              Medium   0.123000 8.025000 2.626000 0.000000 0.000000 0.000000
NODE20RTK        Aug              Long     0.096000 0.336000 37.650000 0.000000 0.000000 0.000000
NODE20RTK        Sep              Short    0.148000 2.117000 0.028000 0.000000 0.000000 0.000000
NODE20RTK        Sep              Medium   0.123000 8.025000 2.626000 0.000000 0.000000 0.000000
NODE20RTK        Sep              Long     0.096000 0.336000 37.650000 0.000000 0.000000 0.000000
NODE20RTK        Oct              Short    0.148000 2.117000 0.028000 0.000000 0.000000 0.000000
NODE20RTK        Oct              Medium   0.123000 8.025000 2.626000 0.000000 0.000000 0.000000
NODE20RTK        Oct              Long     0.096000 0.336000 37.650000 0.000000 0.000000 0.000000
NODE20RTK        Nov              Short    0.148000 2.117000 0.028000 0.000000 0.000000 0.000000
NODE20RTK        Nov              Medium   0.123000 8.025000 2.626000 0.000000 0.000000 0.000000
NODE20RTK        Nov              Long     0.096000 0.336000 37.650000 0.000000 0.000000 0.000000
NODE20RTK        Dec              Short    0.148000 2.117000 0.028000 0.000000 0.000000 0.000000
NODE20RTK        Dec              Medium   0.123000 8.025000 2.626000 0.000000 0.000000 0.000000
NODE20RTK        Dec              Long     0.096000 0.336000 37.650000 0.000000 0.000000 0.000000
TEST_RTK         RG1             
TEST_RTK         All              Short    0.084000 1.541000 1.853000 0.000000 0.000000 0.000000
TEST_RTK         All              Medium   0.067000 4.493000 0.748000 0.000000 0.000000 0.000000
TEST_RTK         All              Long     0.081000 8.872000 3.416000 0.000000 0.000000 0.000000


[RDII]
;;Node           Unit Hydrograph  Sewer Area
;;-------------- ---------------- ----------
10               HYDRO1           1.000000  
13               HYDRO1           2.000000  
14               HYDRO1           3.000000  
15               HYDRO1           3.000000  
16               HYDRO1           3.000000  
19               HYDRO1           1.000000  
20               HYDRO1           2.000000  
21               HYDRO1           2.000000  
22               HYDRO1           2.000000  
23               HYDRO1           4.000000  
24               HYDRO1           4.300000  
9                HYDRO1           1.000000  

[TIMESERIES]
;;Name           Date       Time       Value     
;;-------------- ---------- ---------- ----------
; RAINFALL
TS1                         0:00       0.000000  
TS1                         1:00       0.250000  
TS1                         2:00       0.500000  
TS1                         3:00       0.800000  
TS1                         4:00       0.400000  
TS1                         5:00       0.100000  
TS1                         6:00       0.000000  
TS1                         27:00      0.000000  
TS1                         28:00      0.400000  
TS1                         29:00      0.200000  
TS1                         30:00      0.000000  
;
RDII_RAINFALL    1/1/2010   01:00      0.020000  
RDII_RAINFALL    1/1/2010   02:00      0.020000  
RDII_RAINFALL    1/1/2010   03:00      0.056000  
RDII_RAINFALL    1/1/2010   04:00      0.020000  
RDII_RAINFALL    1/1/2010   05:00      0.020000  
RDII_RAINFALL    1/1/2010   06:00      0.020000  
RDII_RAINFALL    1/1/2010   07:00      0.020000  
RDII_RAINFALL    1/1/2010   08:00      0.020000  
RDII_RAINFALL    1/1/2010   09:00      0.020000  
RDII_RAINFALL    1/1/2010   10:00      0.000000  
RDII_RAINFALL    1/2/2010   01:00      0.000000  
RDII_RAINFALL    1/2/2010   02:00      0.020000  
RDII_RAINFALL    1/2/2010   03:00      0.048000  
RDII_RAINFALL    1/2/2010   04:00      0.118000  
RDII_RAINFALL    1/2/2010   05:00      0.288000  
RDII_RAINFALL    1/2/2010   06:00      0.042000  
RDII_RAINFALL    1/2/2010   07:00      0.020000  
RDII_RAINFALL    1/2/2010   08:00      0.072000  
RDII_RAINFALL    1/2/2010   09:00      0.036000  
RDII_RAINFALL    1/2/2010   10:00      0.040000  
RDII_RAINFALL    1/2/2010   11:00      0.040000  
RDII_RAINFALL    1/2/2010   12:00      0.042000  
RDII_RAINFALL    1/2/2010   13:00      0.036000  
RDII_RAINFALL    1/2/2010   14:00      0.058000  
RDII_RAINFALL    1/2/2010   15:00      0.046000  
RDII_RAINFALL    1/2/2010   16:00      0.026000  
RDII_RAINFALL    1/2/2010   17:00      0.024000  
RDII_RAINFALL    1/2/2010   18:00      0.020000  
RDII_RAINFALL    1/2/2010   19:00      0.020000  
RDII_RAINFALL    1/2/2010   20:00      0.020000  
RDII_RAINFALL    1/2/2010   21:00      0.020000  
RDII_RAINFALL    1/2/2010   22:00      0.020000  
RDII_RAINFALL    1/2/2010   23:00      0.020000  
RDII_RAINFALL    1/3/2010   00:00      0.020000  
RDII_RAINFALL    1/3/2010   01:00      0.020000  
RDII_RAINFALL    1/3/2010   02:00      0.020000  
RDII_RAINFALL    1/3/2010   03:00      0.020000  
RDII_RAINFALL    1/3/2010   04:00      0.020000  
RDII_RAINFALL    1/3/2010   05:00      0.020000  
RDII_RAINFALL    1/3/2010   06:00      0.020000  
RDII_RAINFALL    1/3/2010   07:00      0.020000  
RDII_RAINFALL    1/3/2010   08:00      0.038000  
RDII_RAINFALL    1/3/2010   09:00      0.038000  
RDII_RAINFALL    1/3/2010   10:00      0.020000  
RDII_RAINFALL    1/3/2010   11:00      0.030000  
RDII_RAINFALL    1/3/2010   12:00      0.046000  
RDII_RAINFALL    1/3/2010   13:00      0.020000  
RDII_RAINFALL    1/3/2010   14:00      0.020000  
RDII_RAINFALL    1/3/2010   15:00      0.020000  
RDII_RAINFALL    1/3/2010   16:00      0.000000  
RDII_RAINFALL    1/3/2010   17:00      0.000000  
RDII_RAINFALL    1/3/2010   18:00      0.020000  
RDII_RAINFALL    1/3/2010   19:00      0.020000  
RDII_RAINFALL    1/3/2010   20:00      0.020000  
RDII_RAINFALL    1/3/2010   21:00      0.020000  
RDII_RAINFALL    1/3/2010   22:00      0.020000  
RDII_RAINFALL    1/3/2010   23:00      0.020000  
RDII_RAINFALL    1/4/2010   00:00      0.020000  
RDII_RAINFALL    1/4/2010   01:00      0.020000  
RDII_RAINFALL    1/4/2010   02:00      0.000000  
RDII_RAINFALL    1/5/2010   04:00      0.000000  
RDII_RAINFALL    1/5/2010   05:00      0.020000  
RDII_RAINFALL    1/5/2010   06:00      0.020000  
RDII_RAINFALL    1/5/2010   07:00      0.020000  
RDII_RAINFALL    1/5/2010   08:00      0.020000  
RDII_RAINFALL    1/5/2010   09:00      0.020000  
RDII_RAINFALL    1/5/2010   10:00      0.020000  
RDII_RAINFALL    1/5/2010   11:00      0.020000  
RDII_RAINFALL    1/5/2010   12:00      0.000000  
RDII_RAINFALL    1/5/2010   23:00      0.000000  
RDII_RAINFALL    1/6/2010   00:00      0.020000  
RDII_RAINFALL    1/6/2010   01:00      0.000000  
RDII_RAINFALL    1/8/2010   06:00      0.000000  
RDII_RAINFALL    1/8/2010   07:00      0.020000  
RDII_RAINFALL    1/8/2010   08:00      0.020000  
RDII_RAINFALL    1/8/2010   09:00      0.020000  
RDII_RAINFALL    1/8/2010   10:00      0.020000  
RDII_RAINFALL    1/8/2010   11:00      0.020000  
RDII_RAINFALL    1/8/2010   12:00      0.020000  
RDII_RAINFALL    1/8/2010   13:00      0.000000  
RDII_RAINFALL    1/8/2010   14:00      0.020000  
RDII_RAINFALL    1/8/2010   15:00      0.020000  
RDII_RAINFALL    1/8/2010   16:00      0.020000  
RDII_RAINFALL    1/8/2010   17:00      0.020000  
RDII_RAINFALL    1/8/2010   18:00      0.000000  
RDII_RAINFALL    1/8/2010   19:00      0.020000  
RDII_RAINFALL    1/8/2010   20:00      0.020000  
RDII_RAINFALL    1/8/2010   21:00      0.020000  
RDII_RAINFALL    1/8/2010   22:00      0.000000  
RDII_RAINFALL    1/13/2010  15:00      0.000000  
RDII_RAINFALL    1/13/2010  16:00      0.020000  
RDII_RAINFALL    1/13/2010  17:00      0.020000  
RDII_RAINFALL    1/13/2010  18:00      0.020000  
RDII_RAINFALL    1/13/2010  19:00      0.020000  
RDII_RAINFALL    1/13/2010  20:00      0.000000  
RDII_RAINFALL    1/13/2010  21:00      0.020000  
RDII_RAINFALL    1/13/2010  22:00      0.020000  
RDII_RAINFALL    1/13/2010  23:00      0.000000  
RDII_RAINFALL    1/17/2010  16:00      0.000000  
RDII_RAINFALL    1/17/2010  17:00      0.020000  
RDII_RAINFALL    1/17/2010  18:00      0.026000  
RDII_RAINFALL    1/17/2010  19:00      0.240000  
RDII_RAINFALL    1/17/2010  20:00      0.118000  
RDII_RAINFALL    1/17/2010  21:00      0.274000  
RDII_RAINFALL    1/17/2010  22:00      0.218000  
RDII_RAINFALL    1/17/2010  23:00      0.166000  
RDII_RAINFALL    1/18/2010  00:00      0.330000  
RDII_RAINFALL    1/18/2010  01:00      0.360000  
RDII_RAINFALL    1/18/2010  02:00      0.420000  
RDII_RAINFALL    1/18/2010  03:00      0.194000  
RDII_RAINFALL    1/18/2010  04:00      0.554000  
RDII_RAINFALL    1/18/2010  05:00      0.086000  
RDII_RAINFALL    1/18/2010  06:00      0.400000  
RDII_RAINFALL    1/18/2010  07:00      0.020000  
RDII_RAINFALL    1/18/2010  08:00      0.020000  
RDII_RAINFALL    1/18/2010  09:00      0.020000  
RDII_RAINFALL    1/18/2010  10:00      0.020000  
RDII_RAINFALL    1/18/2010  11:00      0.020000  
RDII_RAINFALL    1/18/2010  12:00      0.020000  
RDII_RAINFALL    1/18/2010  13:00      0.020000  
RDII_RAINFALL    1/18/2010  14:00      0.020000  
RDII_RAINFALL    1/18/2010  15:00      0.000000  
RDII_RAINFALL    1/19/2010  05:00      0.000000  
RDII_RAINFALL    1/19/2010  06:00      0.020000  
RDII_RAINFALL    1/19/2010  07:00      0.000000  
RDII_RAINFALL    1/19/2010  11:00      0.000000  
RDII_RAINFALL    1/19/2010  12:00      0.020000  
RDII_RAINFALL    1/19/2010  13:00      0.040000  
RDII_RAINFALL    1/19/2010  14:00      0.152000  
RDII_RAINFALL    1/19/2010  15:00      0.030000  
RDII_RAINFALL    1/19/2010  16:00      0.034000  
RDII_RAINFALL    1/19/2010  17:00      0.064000  
RDII_RAINFALL    1/19/2010  18:00      0.108000  
RDII_RAINFALL    1/19/2010  19:00      0.044000  
RDII_RAINFALL    1/19/2010  20:00      0.020000  
RDII_RAINFALL    1/19/2010  21:00      0.000000  
RDII_RAINFALL    1/20/2010  12:00      0.000000  
RDII_RAINFALL    1/20/2010  13:00      0.020000  
RDII_RAINFALL    1/20/2010  14:00      0.020000  
RDII_RAINFALL    1/20/2010  15:00      0.000000  
RDII_RAINFALL    1/25/2010  00:00      0.000000  
RDII_RAINFALL    1/25/2010  01:00      0.020000  
RDII_RAINFALL    1/25/2010  02:00      0.000000  
RDII_RAINFALL    1/25/2010  09:00      0.000000  
RDII_RAINFALL    1/25/2010  10:00      0.020000  
RDII_RAINFALL    1/25/2010  11:00      0.170000  
RDII_RAINFALL    1/25/2010  12:00      0.090000  
RDII_RAINFALL    1/25/2010  13:00      0.138000  
RDII_RAINFALL    1/25/2010  14:00      0.372000  
RDII_RAINFALL    1/25/2010  15:00      0.808000  
RDII_RAINFALL    1/25/2010  16:00      0.514000  
RDII_RAINFALL    1/25/2010  17:00      0.542000  
RDII_RAINFALL    1/25/2010  18:00      0.306000  
RDII_RAINFALL    1/25/2010  19:00      0.046000  
RDII_RAINFALL    1/25/2010  20:00      0.020000  
RDII_RAINFALL    1/25/2010  21:00      0.000000  
RDII_RAINFALL    1/26/2010  03:00      0.000000  
RDII_RAINFALL    1/26/2010  04:00      0.020000  
RDII_RAINFALL    1/26/2010  05:00      0.020000  
RDII_RAINFALL    1/26/2010  06:00      0.020000  
RDII_RAINFALL    1/26/2010  07:00      0.020000  
RDII_RAINFALL    1/26/2010  08:00      0.020000  
RDII_RAINFALL    1/26/2010  09:00      0.000000  
RDII_RAINFALL    1/26/2010  13:00      0.000000  
RDII_RAINFALL    1/26/2010  14:00      0.020000  
RDII_RAINFALL    1/26/2010  15:00      0.020000  
RDII_RAINFALL    1/26/2010  16:00      0.000000  
RDII_RAINFALL    1/28/2010  10:00      0.000000  
RDII_RAINFALL    1/28/2010  11:00      0.020000  
RDII_RAINFALL    1/28/2010  12:00      0.020000  
RDII_RAINFALL    1/28/2010  13:00      0.020000  
RDII_RAINFALL    1/28/2010  14:00      0.086000  
RDII_RAINFALL    1/28/2010  15:00      0.036000  
RDII_RAINFALL    1/28/2010  16:00      0.000000  
RDII_RAINFALL    1/28/2010  18:00      0.000000  
RDII_RAINFALL    1/28/2010  19:00      0.044000  
RDII_RAINFALL    1/28/2010  20:00      0.020000  
RDII_RAINFALL    1/28/2010  21:00      0.000000  
RDII_RAINFALL    1/29/2010  00:00      0.000000  
RDII_RAINFALL    1/29/2010  01:00      0.020000  
RDII_RAINFALL    1/29/2010  02:00      0.020000  
RDII_RAINFALL    1/29/2010  03:00      0.000000  
RDII_RAINFALL    2/1/2010   00:00      0.000000  
RDII_RAINFALL    2/1/2010   01:00      0.020000  
RDII_RAINFALL    2/1/2010   02:00      0.000000  
RDII_RAINFALL    2/3/2010   01:00      0.000000  
RDII_RAINFALL    2/3/2010   02:00      0.020000  
RDII_RAINFALL    2/3/2010   03:00      0.020000  
RDII_RAINFALL    2/3/2010   04:00      0.020000  
RDII_RAINFALL    2/3/2010   05:00      0.020000  
RDII_RAINFALL    2/3/2010   06:00      0.020000  
RDII_RAINFALL    2/3/2010   07:00      0.038000  
RDII_RAINFALL    2/3/2010   08:00      0.020000  
RDII_RAINFALL    2/3/2010   09:00      0.020000  
RDII_RAINFALL    2/3/2010   10:00      0.020000  
RDII_RAINFALL    2/3/2010   11:00      0.000000  
RDII_RAINFALL    2/6/2010   08:00      0.000000  
RDII_RAINFALL    2/6/2010   09:00      0.020000  
RDII_RAINFALL    2/6/2010   10:00      0.020000  
RDII_RAINFALL    2/6/2010   11:00      0.020000  
RDII_RAINFALL    2/6/2010   12:00      0.020000  
RDII_RAINFALL    2/6/2010   13:00      0.020000  
RDII_RAINFALL    2/6/2010   14:00      0.020000  
RDII_RAINFALL    2/6/2010   15:00      0.020000  
RDII_RAINFALL    2/6/2010   16:00      0.000000  
RDII_RAINFALL    2/10/2010  07:00      0.000000  