[TITLE]
;;Project Title/Notes
Scenario Run :  BASE

[OPTIONS]
;;Option             Value
FLOW_UNITS           LPS
INFILTRATION         HORTON
FLOW_ROUTING         DYNWAVE
LINK_OFFSETS         DEPTH
MIN_SLOPE            0
ALLOW_PONDING        NO
SKIP_STEADY_STATE    NO

IGNORE_RAINFALL      YES
START_DATE           07/15/1977
START_TIME           00:00:00
REPORT_START_DATE    07/15/1977
REPORT_START_TIME    00:00:00
END_DATE             07/17/1977
END_TIME             00:00:00
SWEEP_START          01/01
SWEEP_END            12/31
DRY_DAYS             7.000000
REPORT_STEP          00:30:00
WET_STEP             00:01:00
DRY_STEP             00:01:00
ROUTING_STEP         0:00:30 

INERTIAL_DAMPING     NONE
NORMAL_FLOW_LIMITED  BOTH
FORCE_MAIN_EQUATION  H-W
VARIABLE_STEP        0.25
LENGTHENING_STEP     0
MIN_SURFAREA         12.566000
MAX_TRIALS           4
HEAD_TOLERANCE       0.005000
SYS_FLOW_TOL         5
LAT_FLOW_TOL         5
MINIMUM_STEP         1.000000
THREADS              1

[EVAPORATION]
;;Data Source    Parameters
;;-------------- ----------------
CONSTANT         2.000000
RECOVERY         EVAPORATION
DRY_ONLY         NO

[TEMPERATURE]
;;Data Element     Values     
TIMESERIES         TEMP1977
WINDSPEED MONTHLY  0.000000 0.000000 0.000000 0.000000 0.000000 0.000000 0.000000 0.000000 0.000000 0.000000 0.000000 0.000000
SNOWMELT           34.000000 0.500000 0.600000 0.000000 50.000000 0.000000
ADC IMPERVIOUS     1.000000 1.000000 1.000000 1.000000 1.000000 1.000000 1.000000 1.000000 1.000000 1.000000
ADC PERVIOUS       1.000000 1.000000 1.000000 1.000000 1.000000 1.000000 1.000000 1.000000 1.000000 1.000000

[RAINGAGES]
;;Name           Format    Interval SCF      Source    
;;-------------- --------- ------ ------ ----------
GAGE1            INTENSITY 0.083333 1.000000 TIMESERIES RAINSERIES1     

[SUBCATCHMENTS]
;;Name           Rain Gage        Outlet           Area     %Imperv  Width    %Slope   CurbLen  SnowPack        
;;-------------- ---------------- ---------------- -------- -------- -------- -------- -------- ----------------
CA-1             GAGE1            P001             33.000000 39.000000 600.000000 2.700000 0.000000                 
CA-11            GAGE1            FLOWFROMSUB      33.000000 47.000000 600.000000 1.000000 0.000000 SNOWPACK100     
CA-7             GAGE1            P005             33.000000 48.600000 200.000000 2.700000 0.000000 SNOWPACK100     
CA-8             GAGE1            P009             33.000000 46.700000 500.000000 1.000000 0.000000 SNOWPACK100     

[SUBAREAS]
;;Subcatchment   N-Imperv   N-Perv     S-Imperv   S-Perv     PctZero    RouteTo    PctRouted 
;;-------------- ---------- ---------- ---------- ---------- ---------- ---------- ----------
CA-1             0.015000   0.410000   0.060000   0.200000   25.000000  OUTLET    
CA-11            0.015000   0.410000   0.060000   0.200000   25.000000  OUTLET    
CA-7             0.015000   0.410000   0.060000   0.200000   25.000000  OUTLET    
CA-8             0.015000   0.410000   0.060000   0.200000   25.000000  OUTLET    

[INFILTRATION]
;;Subcatchment   MaxRate    MinRate    Decay      DryTime    MaxInfil  
;;-------------- ---------- ---------- ---------- ---------- ----------
CA-1             4.000000   3.000000   0.100000   0.050000   5.000000  
CA-11            4.000000   3.000000   0.100000   0.050000   0.001000  
CA-7             4.000000   3.000000   0.100000   0.050000   0.001000  
CA-8             4.000000   3.000000   0.100000   0.050000   0.001000  

[LID_CONTROLS]
;;Name           Type/Layer Parameters
;;-------------- ---------- ----------
RB               RB
RB               STORAGE    100.000000 0.750000   0.500000   0.000000  
RB               DRAIN      5.000000   0.500000   6.000000   1.000000  

RAINGARDEN       RG
RAINGARDEN       SURFACE    2.000000   0.100000   0.100000   1.000000   5.000000  
RAINGARDEN       SOIL       50.000000  0.500000   0.200000   0.100000   0.500000   10.000000  3.500000  
RAINGARDEN       STORAGE    0          0.75       0.5        0         

[LID_USAGE]
;;Subcatchment   LID Process      Number  Area       Width      InitSat    FromImp    ToPerv     RptFile                  DrainTo         
;;-------------- ---------------- ------- ---------- ---------- ---------- ---------- ---------- ------------------------ ----------------
CA-11            RAINGARDEN       5       25.000000  4.000000   0.000000   1.000000   1         
CA-11            RB               10      12.000000  4.000000   0.000000   1.000000   1         

[AQUIFERS]
;;Name           Por    WP     FC     Ksat   Kslope Tslope ETu    ETs    Seep   Ebot   Egw    Umc    ETupat 
;;-------------- ------ ------ ------ ------ ------ ------ ------ ------ ------ ------ ------ ------ ------
MONROVIA         0.479000 0.251000 0.371000 5.000000 10.000000 15.000000 0.350000 14.000000 0.002000 0.000000 10.000000 0.300000       

[GROUNDWATER]
;;Subcatchment   Aquifer          Node             Esurf  A1     B1     A2     B2     A3     Dsw    Egwt   Ebot   Wgr    Umc   
;;-------------- ---------------- ---------------- ------ ------ ------ ------ ------ ------ ------ ------ ------ ------ ------
CA-1             MONROVIA         P001             5.000000 0.010000 1.000000 0.010000 1.000000 0.000000 0.000000 2.000000 1.000000 2.000000 0.500000
CA-11            MONROVIA         FLOWFROMSUB      5.000000 0.010000 1.000000 0.010000 1.000000 0.000000 0.000000 2.000000 1.000000 2.000000 0.500000
CA-7             MONROVIA         P005             5.000000 0.010000 1.000000 0.010000 1.000000 0.000000 0.000000 2.000000 1.000000 2.000000 0.500000
CA-8             MONROVIA         P009             5.000000 0.010000 1.000000 0.010000 1.000000 0.000000 0.000000 2.000000 1.000000 2.000000 0.500000

[GWF]
;;Subcatchment   Flow    Equation
;;-------------- ------- --------
CA-1             DEEP    Ksat*Hgw/Hsw
CA-11            DEEP    Ksat*Hgw/Hsw
CA-7             DEEP    Ksat*Hgw/Hsw
CA-8             DEEP    Ksat*Hgw/Hsw

[SNOWPACKS]
;;Name           Surface    Parameters
;;-------------- ---------- ----------
SNOWPACK100      PLOWABLE   0.001000   0.001000   32.000000  0.100000   0.000000   0.000000   0.000000  
SNOWPACK100      IMPERVIOUS 0.001000   0.001000   32.000000  0.100000   0.000000   0.000000   0.000000  
SNOWPACK100      PERVIOUS   0.001000   0.001000   32.000000  0.100000   0.000000   0.000000   0.000000  
SNOWPACK100      REMOVAL    0.000000   0.000000   0.000000   0.000000   0.000000   0.000000   

[JUNCTIONS]
;;Name           Elevation  MaxDepth   InitDepth  SurDepth   Aponded   
;;-------------- ---------- ---------- ---------- ---------- ----------
FLOWFROMSUB      5.000000   6.000000   0.000000   0.000000   0.000000  
OVERLANDNODE     10.000000  1.000000   0.000000   0.000000   0.000000  
P001             1.100000   20.000000  0.000000   0.000000   0.000000  
P009             3.600000   20.000000  0.000000   0.000000   0.000000  

[OUTFALLS]
;;Name           Elevation  Type       Stage Data       Gated    Route To        
;;-------------- ---------- ---------- ---------------- -------- ----------------
OUTLET           0.000000   FREE                        NO                       

[STORAGE]
;;Name           Elev.    MaxDepth   InitDepth  Shape      Curve Name/Params            N/A      Fevap    Psi      Ksat     IMD     
;;-------------- -------- ---------- ----------- ---------- ---------------------------- -------- --------          -------- --------
P005             1.580000 20.000000  0.000000   FUNCTIONAL 1000.000000  0.000000  0.000000 0.000000 1.000000

[CONDUITS]
;;Name           From Node        To Node          Length     Roughness  InOffset   OutOffset  InitFlow   MaxFlow   
;;-------------- ---------------- ---------------- ---------- ---------- ---------- ---------- ---------- ----------
CDT-11           OVERLANDNODE     P005             655.000000 0.024000   0.000000   0.000000   0.000000   0.000000  
P001             P001             OUTLET           220.000000 0.015000   0.000000   0.000000   0.000000   0.000000  
P005             P005             P001             240.000000 0.015000   0.000000   0.000000   0.000000   0.000000  
P009             P009             P005             505.000000 0.024000   0.000000   0.000000   0.000000   0.000000  
P011             FLOWFROMSUB      P005             655.000000 0.024000   0.000000   0.000000   0.000000   0.000000  

[WEIRS]
;;Name           From Node        To Node          Type         CrestHt    Qcoeff     Gated    EndCon   EndCoeff   Surcharge  RoadWidth  RoadSurf  
;;-------------- ---------------- ---------------- ------------ ---------- ---------- -------- -------- ---------- ---------- ---------- ----------
1                FLOWFROMSUB      P009             ROADWAY      0.100000   3.330000   NO       0        0.000000   YES        1.000000   PAVED     

[XSECTIONS]
;;Link           Shape        Geom1            Geom2      Geom3      Geom4      Barrels    Culvert   
;;-------------- ------------ ---------------- ---------- ---------- ---------- ---------- ----------
CDT-11           CUSTOM       1.000000         CUNETTE    0.000000   0.000000   1                    
P001             CIRCULAR     4.000000         0.000000   0.000000   0.000000   1          0         
P005             CIRCULAR     3.000000         0.000000   0.000000   0.000000   1          0         
P009             CIRCULAR     2.250000         0.000000   0.000000   0.000000   1          0         
P011             CIRCULAR     2.500000         0.000000   0.000000   0.000000   1          0         
1                RECT_OPEN    1.000000         1.000000   0.000000   0.000000  

[LOSSES]
;;Link           Kentry     Kexit      Kavg       Flap Gate  Seepage   
;;-------------- ---------- ---------- ---------- ---------- ----------
CDT-11           0.000000   0.000000   0.000000   NO         0.000000  
P001             0.000000   0.000000   0.000000   NO         0.100000  
P005             0.000000   0.000000   0.000000   NO         0.100000  
P009             0.000000   0.000000   0.000000   NO         0.000000  
P011             0.000000   0.000000   0.000000   NO         0.000000  

[CONTROLS]
; New Real Time Control (RTC) Rules
RULE RULE-1
IF SIMULATION CLOCKTIME > 00:00:00
THEN CONDUIT P005 STATUS = CLOSED
PRIORITY 0.000000



[POLLUTANTS]
;;Name           Units  Crain      Cgw        Crdii      Kdecay     SnowOnly   Co-Pollutant     Co-Frac    Cdwf       Cinit     
;;-------------- ------ ---------- ---------- ---------- ---------- ---------- ---------------- ---------- ---------- ----------
TSS              MG/L   18.000000  0.000000   0.000000   0.000000   NO         *                0.000000   0.000000   0.000000  
TN               MG/L   1.000000   0.000000   0.000000   0.000000   NO         *                0.000000   0.000000   0.000000  

[LANDUSES]
;;               Sweeping   Fraction   Last      
;;Name           Interval   Available  Swept     
;;-------------- ---------- ---------- ----------
A                0.000000   0.000000   0.000000  
B                0.000000   0.000000   0.000000  

[COVERAGES]
;;Subcatchment   Land Use         Percent   
;;-------------- ---------------- ----------
CA-1             A                45.000000 
CA-1             B                55.000000 
CA-11            A                45.000000 
CA-11            B                55.000000 
CA-7             A                45.000000 
CA-7             B                55.000000 
CA-8             A                45.000000 
CA-8             B                55.000000 

[LOADINGS]
;;Subcatchment   Pollutant        Buildup   
;;-------------- ---------------- ----------

[BUILDUP]
;;Land Use       Pollutant        Function   Coeff1     Coeff2     Coeff3     Per Unit  
;;-------------- ---------------- ---------- ---------- ---------- ---------- ----------
A                TSS              NONE       0.0        0.0        0.0        AREA      
A                TN               NONE       0.0        0.0        0.0        AREA      
B                TSS              NONE       0.0        0.0        0.0        AREA      
B                TN               NONE       0.0        0.0        0.0        AREA      

[WASHOFF]
;;Land Use       Pollutant        Function   Coeff1     Coeff2     SweepRmvl  BmpRmvl   
;;-------------- ---------------- ---------- ---------- ---------- ---------- ----------
A                TSS              NONE       0.0        0.0        0.0        0.0       
A                TN               NONE       0.0        0.0        0.0        0.0       
B                TSS              NONE       0.0        0.0        0.0        0.0       
B                TN               NONE       0.0        0.0        0.0        0.0       

[TREATMENT]
;;Node           Pollutant        Function  
;;-------------- ---------------- ----------
P005             TN               R = 1-(1+0.001/(2*FLOW/AREA))^(-2)

[INFLOWS]
;;Node           Constituent      Time Series      Type     Mfactor  Sfactor  Baseline Pattern
;;-------------- ---------------- ---------------- -------- -------- -------- -------- --------
FLOWFROMSUB      FLOW             ""               FLOW     1.0      1.000000 1.000000 EVAPORATION

[DWF]
;;Node           Constituent      Baseline   Patterns  
;;-------------- ---------------- ---------- ----------
FLOWFROMSUB      FLOW             10.000000  "ODDDATYPATTERN" "ONEDAY" ""

[HYDROGRAPHS]
;;Hydrograph     Rain Gage/Month  Response R        T        K        Dmax     Drecov   Dinit   
;;-------------- ---------------- -------- -------- -------- -------- -------- -------- --------
2050RTK          GAGE1           
2050RTK          All              Short    0.020000 1.000000 1.000000 1.000000 1.000000 0.000000
2050RTK          All              Medium   0.020000 2.000000 2.000000 1.000000 1.000000 0.000000
2050RTK          All              Long     0.020000 3.000000 3.000000 1.000000 1.000000 0.000000
BASERTK          GAGE1           
BASERTK          All              Short    0.010000 1.000000 2.000000 1.000000 1.000000 0.000000
BASERTK          All              Medium   0.010000 2.000000 3.000000 1.000000 1.000000 0.000000
BASERTK          All              Long     0.010000 3.000000 4.000000 1.000000 1.000000 0.000000


[RDII]
;;Node           Unit Hydrograph  Sewer Area
;;-------------- ---------------- ----------
FLOWFROMSUB      2050RTK          122.000000

[CURVES]
;;Name           Type       X-Value    Y-Value   
;;-------------- ---------- ---------- ----------
CUNETTE          SHAPE      0.000000   0.000000  
CUNETTE                     0.020000   0.140000  
CUNETTE                     0.040000   0.195950  
CUNETTE                     0.060000   0.237500  
CUNETTE                     0.080000   0.271300  
CUNETTE                     0.100000   0.300000  
CUNETTE                     0.120000   0.324950  
CUNETTE                     0.140000   0.347000  
CUNETTE                     0.160000   0.366600  
CUNETTE                     0.180000   0.384200  
CUNETTE                     0.200000   0.400000  
CUNETTE                     0.220000   0.414250  
CUNETTE                     0.240000   0.427100  
CUNETTE                     0.260000   0.438650  
CUNETTE                     0.280000   0.449000  
CUNETTE                     0.300000   0.458250  
CUNETTE                     0.320000   0.933000  
CUNETTE                     0.340000   0.947400  
CUNETTE                     0.360000   0.960000  
CUNETTE                     0.380000   0.970800  
CUNETTE                     0.400000   0.979800  
CUNETTE                     0.420000   0.987100  
CUNETTE                     0.440000   0.992800  
CUNETTE                     0.460000   0.996800  
CUNETTE                     0.480000   0.999200  
CUNETTE                     0.500000   1.000000  
CUNETTE                     0.520000   0.999200  
CUNETTE                     0.540000   0.996800  
CUNETTE                     0.560000   0.992800  
CUNETTE                     0.580000   0.987100  
CUNETTE                     0.600000   0.979800  
CUNETTE                     0.620000   0.970800  
CUNETTE                     0.640000   0.960000  
CUNETTE                     0.660000   0.947400  
CUNETTE                     0.680000   0.933000  
CUNETTE                     0.700000   0.916500  
CUNETTE                     0.720000   0.898000  
CUNETTE                     0.740000   0.877300  
CUNETTE                     0.760000   0.854200  
CUNETTE                     0.780000   0.828500  
CUNETTE                     0.800000   0.800000  
CUNETTE                     0.820000   0.768400  
CUNETTE                     0.840000   0.733200  
CUNETTE                     0.860000   0.694000  
CUNETTE                     0.880000   0.649900  
CUNETTE                     0.900000   0.600000  
CUNETTE                     0.920000   0.542600  
CUNETTE                     0.940000   0.475000  
CUNETTE                     0.960000   0.391900  
CUNETTE                     0.980000   0.280000  
CUNETTE                     1.000000   0.000000  

[TIMESERIES]
;;Name           Date       Time       Value     
;;-------------- ---------- ---------- ----------
RAINSERIES1      07/15/1977 06:30      0.000000  
RAINSERIES1                 06:35      21.000000 
RAINSERIES1                 06:40      1.000000  
RAINSERIES1                 06:45      0.500000  
RAINSERIES1                 06:50      0.000000  
RAINSERIES1                 07:05      0.000000  
RAINSERIES1                 07:10      17.000000 
RAINSERIES1                 07:15      22.000000 
RAINSERIES1      07/15/1977 07:20      50.500000 
RAINSERIES1                 07:25      53.250000 
RAINSERIES1                 07:30      15.750000 
RAINSERIES1                 07:35      58.250000 
RAINSERIES1                 07:40      7.750000  
RAINSERIES1      07/15/1977 07:45      5.000000  
RAINSERIES1                 07:50      0.000000  
RAINSERIES1                 08:00      0.000000  
RAINSERIES1                 08:05      0.500000  
RAINSERIES1      07/15/1977 08:10      0.000000  
RAINSERIES1                 08:25      0.000000  
RAINSERIES1                 08:30      5.500000  
RAINSERIES1      07/15/1977 08:35      59.750000 
RAINSERIES1                 08:40      10.000000 
RAINSERIES1                 08:45      21.500000 
RAINSERIES1                 08:50      69.750000 
RAINSERIES1                 08:55      34.500000 
RAINSERIES1      07/15/1977 09:00      27.000000 
RAINSERIES1                 09:05      16.000000 
RAINSERIES1                 09:10      0.500000  
RAINSERIES1                 09:15      3.750000  
RAINSERIES1                 09:20      0.000000  
;
TEMP1977         5/17/1977  0:0        45.000000 
TEMP1977                    1:0        45.000000 
TEMP1977                    2:0        45.000000 
TEMP1977                    3:0        45.000000 

[PATTERNS]
;;Name           Type       Multipliers
;;-------------- ---------- -----------
EVAPORATION      MONTHLY    5.000000 5.000000 2.000000 2.000000 3.000000 3.000000
EVAPORATION                 2.000000 2.000000 2.000000 1.000000 1.000000 1.000000
;
NORMALDAYS       DAILY      1.000000 1.000000 1.000000 0.000000 1.000000 1.000000 1.000000
;
ODDDATYPATTERN   HOURLY     0.000000 0.000000 0.000000 0.000000 0.000000 0.000000
ODDDATYPATTERN              0.000000 1.000000 1.000000 1.000000 1.000000 1.000000
ODDDATYPATTERN              0.000000 0.000000 0.000000 1.000000 1.000000 1.000000
ODDDATYPATTERN              1.000000 1.000000 0.000000 0.000000 0.000000 0.000000
;
ONEDAY           DAILY      0.000000 0.000000 0.000000 1.000000 0.000000 0.000000 0.000000

[REPORT]
;;Reporting Options
INPUT      NO
CONTROLS   NO
SUBCATCHMENTS ALL
NODES ALL
LINKS ALL

[ADJUSTMENTS]
;;Parameter  Monthly Adjustments
TEMPERATURE    0.0    1.000000 1.000000 1.000000 1.000000 1.000000 1.000000 1.000000 1.000000 1.000000 1.000000 1.000000
EVAPORATION    0.0    0.010000 0.010000 0.010000 0.010000 0.010000 0.010000 0.010000 0.010000 0.010000 0.010000 0.010000
RAINFALL       0.750000 0.750000 0.750000 0.750000 0.750000 0.750000 0.750000 0.750000 0.750000 0.750000 0.750000 0.750000
CONDUCTIVITY   0.750000 0.750000 0.750000 0.750000 0.750000 0.750000 0.750000 0.750000 0.750000 0.750000 0.750000 0.750000

[TAGS]

[MAP]
DIMENSIONS -152.174 79.665 749.713 660.287
Units      None

[COORDINATES]
;;Node           X-Coord            Y-Coord           
;;-------------- ------------------ ------------------
FLOWFROMSUB      400.000            400.000           
OVERLANDNODE     418.957            382.034           
P001             147.531            119.924           
P009             281.276            352.903           
OUTLET           -8.449             111.653           
P005             198.227            200.920           

[VERTICES]
;;Link           X-Coord            Y-Coord           
;;-------------- ------------------ ------------------
CDT-11           418.957            379.700           

[Polygons]
;;Subcatchment   X-Coord            Y-Coord           
;;-------------- ------------------ ------------------
CA-1             252.872            423.263           
CA-1             171.191            474.606           
CA-1             114.934            516.085           
CA-1             40.905             619.844           
CA-1             -111.179           560.147           
CA-1             -57.644            368.074           
CA-1             174.303            287.906           
CA-11            708.718            347.243           
CA-11            612.269            568.733           
CA-11            497.915            459.825           
CA-11            381.228            347.805           
CA-11            695.636            196.112           
CA-7             695.636            196.112           
CA-7             382.784            346.250           
CA-7             273.098            410.817           
CA-7             248.983            419.374           
CA-7             234.202            399.148           
CA-7             174.303            287.906           
CA-7             475.142            106.057           
CA-8             382.784            348.583           
CA-8             613.825            568.733           
CA-8             383.819            625.439           
CA-8             232.408            633.895           
CA-8             114.677            516.163           
CA-8             312.772            384.367           

[SYMBOLS]
;;Gage           X-Coord            Y-Coord           
;;-------------- ------------------ ------------------
GAGE1            242.100            568.930           

