[TITLE]
Scenario Run :  BASE
 SW 1 9 8
#SWMM4_TEMPERATURE   Reads a SWMM 4 Binary Temperature Interface File

[OPTIONS]
;Option and Files Scenario Set: BASE, Base Simulation Options
FLOW_UNITS	CFS
INFILTRATION	HORTON
FLOW_ROUTING	DYNWAVE
ALLOW_PONDING	NO
DRY_DAYS	0.000000
SKIP_STEADY_STATE 	NO
IGNORE_RAINFALL	NO
IGNORE_SNOWMELT	NO
IGNORE_GROUNDWATER	NO
IGNORE_QUALITY	NO
FORCE_MAIN_EQUATION	H-W
LINK_OFFSETS	DEPTH
MIN_SLOPE	0.000000
START_DATE	07/01/1987
START_TIME	12:00
END_DATE	07/02/1987
END_TIME	23:00
REPORT_START_DATE	07/01/1987
REPORT_START_TIME	12:00
SWEEP_START	01/01
SWEEP_END	12/31
WET_STEP	00:05:00
DRY_STEP	01:00:00
ROUTING_STEP	30
REPORT_STEP	00:15:00
INERTIAL_DAMPING	NONE
VARIABLE_STEP	0.750000
MINIMUM_STEP	0.000000
LENGTHENING_STEP	0
MIN_SURFAREA	12.566000
NORMAL_FLOW_LIMITED	BOTH
MAX_TRIALS	4
HEAD_TOLERANCE	0.005000

[FILES]

[RAINGAGES]
GAGE1	INTENSITY	0.500000	1.000000	TIMESERIES	RAINSERIES1		

[HYDROGRAPHS]

[EVAPORATION]
CONSTANT	0.000000
DRY_ONLY	NO

[TEMPERATURE]
; BASE Run Climatology Settings
TIMESERIES	TEMPERATURESERIES
WINDSPEED	MONTHLY	10.500000	10.700000	11.300000	12.500000	11.600000	10.700000	9.300000	9.100000	10.000000	10.500000	11.100000	10.400000
SNOWMELT		32.000000	0.500000	0.600000	850.000000	50.000000	0.000000
ADC	IMPERVIOUS	0.000000	0.000000	0.000000	0.000000	0.000000	0.000000	0.000000	0.000000	0.000000	0.000000
ADC	PERVIOUS	0.000000	0.000000	0.000000	0.000000	0.000000	0.000000	0.000000	0.000000	0.000000	0.000000

[ADJUSTMENTS]

[SUBCATCHMENTS]
100	GAGE1	1	300.000000	50.000000	100.000000	0.100000	0.000000	SNOW100

[SUBAREAS]
100	0.040000	0.300000	0.050000	0.250000	25.000000	OUTLET

[INFILTRATION]
100	3.000000	0.100000	0.050000	0.001000	0.000000

[AQUIFERS]

[GROUNDWATER]

[GWF]

[SNOWPACKS]
SNOW100	PLOWABLE	0.003000	0.010000	31.000000	0.030000	0.100000	0.000000	0.000000
SNOW100	IMPERVIOUS	0.003000	0.010000	32.000000	0.050000	0.100000	0.000000	1.000000
SNOW100	PERVIOUS	0.003000	0.010000	32.000000	0.050000	0.200000	0.000000	1.000000
SNOW100	REMOVAL	1.000000	0.000000	0.000000	0.000000	0.000000	0.000000

[JUNCTIONS]
1	10.000000	20.000000	0.000000	0.000000	0.000000

[OUTFALLS]
2	0.000000	FREE	NO

[DIVIDERS]

[STORAGE]

[CONDUITS]
1	1	2	1000.000000	0.020000	0.000000	0.000000	0.000000	0.000000

[PUMPS]

[ORIFICES]

[WEIRS]

[XSECTIONS]
1	CIRCULAR	3.000000	0.000000	0.000000	0.000000	1	0

[TRANSECTS]

[LOSSES]
1	0.000000	0.000000	0.000000	NO	0.000000

[CONTROLS]

[POLLUTANTS]

[LANDUSES]

[COVERAGES]

[BUILDUP]

[WASHOFF]

[TREATMENT]

[INFLOWS]

[DWF]

[RDII]

[LOADINGS]

[CURVES]

[TIMESERIES]
TEMPERATURESERIES	07/01/1987	12:00	23.000000
TEMPERATURESERIES	07/01/1987	15:00	25.000000
TEMPERATURESERIES	07/01/1987	18:00	33.000000
TEMPERATURESERIES	07/01/1987	21:00	45.000000
TEMPERATURESERIES	07/02/1987	0:00	50.000000
TEMPERATURESERIES	07/02/1987	3:00	60.000000
TEMPERATURESERIES	07/02/1987	6:00	55.000000
TEMPERATURESERIES	07/02/1987	9:00	40.000000
TEMPERATURESERIES	07/02/1987	12:00	50.000000
TEMPERATURESERIES	15:00	53.000000
TEMPERATURESERIES	18:00	57.000000
TEMPERATURESERIES	21:00	60.000000

RAINSERIES1	07/01/1987	12:00	2.000000
RAINSERIES1	12:30	3.000000
RAINSERIES1	13:00	1.000000
RAINSERIES1	13:30	1.000000
RAINSERIES1	14:00	2.000000
RAINSERIES1	07/01/1987	14:30	1.000000
RAINSERIES1	15:00	1.000000
RAINSERIES1	15:30	3.000000
RAINSERIES1	16:00	2.000000
RAINSERIES1	16:30	2.000000
RAINSERIES1	17:00	0.500000
RAINSERIES1	17:30	0.000000
RAINSERIES1	18:00	0.000000
RAINSERIES1	18:30	0.500000
RAINSERIES1	19:00	1.000000
RAINSERIES1	19:30	0.250000
RAINSERIES1	20:00	0.100000


[PATTERNS]

[REPORT]
;Report Option Set: BASE, Base Simulation Report
INPUT YES
CONTINUITY YES
FLOWSTATS YES
CONTROLS NO
SUBCATCHMENTS  ALL
NODES  ALL
LINKS  ALL

[COORDINATES]
1	-1.011000	-0.667000
2	-1.235000	-1.000000


[POLYGONS]

100	-0.591000	-0.386000
100	-0.946000	-0.360000
100	-1.025000	-0.448000
100	-1.181000	-0.361000
100	-1.207000	-0.168000
100	-0.918000	0.009000
100	-0.541000	-0.167000

[VERTICES]


[SYMBOLS]
GAGE1	-0.856000	-0.343000

[MAP]
DIMENSIONS	-1.269700	-1.050450	-0.506300	0.059450

