[TITLE]
;;Project Title/Notes
2012 East Cambridge Existing Conditions with Phase 1 western separated
Pruned Model similar to CDM's but with all East Cambridge system (need level file
for North Charles Relief sewer outfall at MAss Ave)
Ground outfalls and 24-inch storage pipes in place and adjacent manholes as sealed
Need to run with RTC that includes CAM017 BW
Added Somerville Ave SD with Somerville Ave corridor as catchment and sibtracted to
old catchments along SOM Ave
Updated SOM009 and SOM001 per East Cambridge 2012 existing conditions model

[OPTIONS]
;;Option             Value
FLOW_UNITS           MGD
INFILTRATION         HORTON
FLOW_ROUTING         KINWAVE
LINK_OFFSETS         DEPTH
MIN_SLOPE            0
ALLOW_PONDING        YES
SKIP_STEADY_STATE    NO

START_DATE           12/06/2018
START_TIME           00:00:00
REPORT_START_DATE    12/06/2018
REPORT_START_TIME    00:00:00
END_DATE             12/06/2018
END_TIME             00:00:00
SWEEP_START          1/1
SWEEP_END            12/31
DRY_DAYS             0
REPORT_STEP          00:15:00
WET_STEP             00:05:00
DRY_STEP             01:00:00
ROUTING_STEP         0:00:30 

INERTIAL_DAMPING     PARTIAL
NORMAL_FLOW_LIMITED  BOTH
FORCE_MAIN_EQUATION  H-W
VARIABLE_STEP        0.75
LENGTHENING_STEP     0
MIN_SURFAREA         0
MAX_TRIALS           0
HEAD_TOLERANCE       0
SYS_FLOW_TOL         5
LAT_FLOW_TOL         5
MINIMUM_STEP         0.5
THREADS              1

[EVAPORATION]
;;Data Source    Parameters
;;-------------- ----------------
CONSTANT         0.0
DRY_ONLY         NO

[SUBCATCHMENTS]
;;Name           Rain Gage        Outlet           Area     %Imperv  Width    %Slope   CurbLen  SnowPack        
;;-------------- ---------------- ---------------- -------- -------- -------- -------- -------- ----------------
; Name Raingage Outlet Area %Imperv Width Slope Clength
100              Binney           1                ALSD-6   0.958001 92.960000 115.252960 0.000000 0.000000        
1008755          1                1008755          7.504147 82.300000 322.566794 0.000000 0.000000                 
10400            1                CT10725          14.150022 60.000000 300.000000 1.000000 0.000000                 
10401            1                CT10661          15.380024 75.000000 4380.000000 0.500000 0.000000                 
10402            1                CT10687          19.440030 65.000000 2000.000000 0.500000 0.000000                 
10403            1                CT10711          20.940032 70.000000 1620.000000 1.000000 0.000000                 
10404            1                CT10651          4.240007 75.000000 1360.000000 1.000000 0.000000                 
10406            1                CT10635          9.640015 75.000000 4800.000000 1.000000 0.000000                 
10407            1                CT106331         86.400133 100.000000 6000.000000 1.000000 0.000000                 
10408            1                CT106331         130.000201 100.000000 8000.000000 1.000000 0.000000                 
10409            1                1005727          6.040009 50.000000 700.000000 0.500000 0.000000                 
10411            1                CT10689          10.850017 65.000000 1100.000000 0.500000 0.000000                 
125              Binney!          1                ALSD-6   1.650168 99.940006 151.255546 0.000000 0.000000        
125              Binney-East      1                D07DMH1225 2.209463 60.000000 175.029968 0.107583 0.000000        
125              Binney_W         1                934093   4.108755 71.000000 238.684437 0.371326 0.000000        
161              First            1                ALSD_5   0.625001 94.630000 93.091353 0.181062 0.000000        
225              Binney           1                935022   2.349566 82.800000 180.494010 0.015354 0.000000        
300              Binney           St               1        935021   2.024646 86.000000 167.549646 0.027293        
303              Third            St               1        intown2  2.173523 72.277228 172.739027 0.115091        
50               Binney           1                ALSD_5   1.015002 95.470000 118.632137 0.181062 0.000000        
6001             3                SM6005           44.850069 40.000000 1272.800000 0.100000 0.000000                 
6002             3                SM6007           41.210064 40.000000 1414.200000 0.100000 0.000000                 
6003             3                SM6009           31.740049 40.000000 1555.600000 0.100000 0.000000                 
6004             3                SM6013           20.950032 40.000000 2121.300000 0.100000 0.000000                 
6005             3                SM6003           10.810017 40.000000 848.500000 0.100000 0.000000                 
6006             3                SM6123           24.080037 20.000000 1979.900000 0.100000 0.000000                 
6007             3                SM6015           23.110036 40.000000 1272.800000 0.100000 0.000000                 
6008             3                SM6019           10.500016 20.000000 636.396000 0.100000 0.000000                 
6009             3                SM6019           23.550036 20.000000 1237.437000 0.100000 0.000000                 
6010             3                SM6193           10.400016 20.000000 707.107000 0.100000 0.000000                 
6011             3                SM6123           6.360010 20.000000 388.900000 0.100000 0.000000                 
6012             3                SM6119           8.940014 20.000000 1131.400000 0.100000 0.000000                 
6013             3                SM6117           15.250024 20.000000 1555.600000 0.100000 0.000000                 
6014             3                SM6023           36.219956 13.307326 2757.716000 0.100000 0.000000                 
6015             3                SM6063           15.440024 20.000000 989.949000 0.100000 0.000000                 
6016             3                SM6029           6.930239 13.307326 424.264000 0.100000 0.000000                 
6017             3                SM6023           43.371667 13.307326 2474.874000 0.100000 0.000000                 
6018             3                SM6031           4.530955 13.307326 1484.924000 0.100000 0.000000                 
6019             3                SM6065           11.914618 2.439024 1131.371000 0.100000 0.000000                 
6020             3                SM6113           20.940032 20.000000 1442.500000 0.100000 0.000000                 
6021             3                SM6113           29.590046 20.000000 1202.100000 0.100000 0.000000                 
6022             3                SM6033           7.963776 13.307326 1343.503000 0.100000 0.000000                 
6023             3                SM6067           70.539025 16.562370 2333.452000 0.100000 0.000000                 
6024             1                SM6035           21.140033 20.000000 1131.371000 0.100000 0.000000                 
6026             1                SM6071           17.020026 20.000000 1414.214000 0.100000 0.000000                 
6027             1                SM6205           12.440019 20.000000 989.949000 0.100000 0.000000                 
6028             1                SM6037           8.920014 20.000000 530.330000 0.100000 0.000000                 
6029             1                SM6211           7.010011 20.000000 989.949000 0.100000 0.000000                 
6030             1                SM6041           40.000062 20.000000 1767.767000 0.100000 0.000000                 
6031             1                SM6075           30.048046 0.000000 848.528000 0.100000 0.000000                 
6037             3                1001555          73.120113 2.000000 3500.000000 0.300000 0.000000                 
6038             1                SM6321           3.795006 40.000000 742.462500 2.000000 0.000000                 
6039             1                SM6325           14.120022 5.000000 1456.692913 0.100000 0.000000                 
6041             1                SM6223           27.970043 20.000000 1555.635000 0.100000 0.000000                 
6042             1                SM6045           114.470177 20.000000 5374.012000 0.100000 0.000000                 
6043             1                SM6045           17.140026 20.000000 1697.056000 0.100000 0.000000                 
6044             1                SM6039           14.920023 20.000000 1590.990000 0.100000 0.000000                 
6045             1                SM6047           101.630157 20.000000 4666.905000 0.100000 0.000000                 
6046             1                SM6223           8.610013 20.000000 473.762000 0.100000 0.000000                 
6047             1                SM6227           11.570018 20.000000 1767.767000 0.100000 0.000000                 
6050             1                1001075          20.116831 100.000000 142.102000 0.300000 0.000000                 
6051             1                SM6273           7.210011 95.000000 77.140000 0.200000 0.000000                 
6052             1                SM6227           4.990008 20.000000 1060.660000 0.100000 0.000000                 
6053             1                SM6263           11.070017 20.000000 989.949000 0.100000 0.000000                 
6054             1                SM6263           5.030008 20.000000 735.391000 0.100000 0.000000                 
6055             1                SM6267           8.250013 20.000000 749.533000 0.100000 0.000000                 
6056             1                SM6049           8.680013 20.000000 579.828000 0.100000 0.000000                 
6057             1                SM6243           10.840017 20.000000 919.239000 0.100000 0.000000                 
6058             1                SM6243           2.510004 20.000000 141.421000 0.100000 0.000000                 
6060             1                SM6051           12.960020 40.000000 1202.082000 0.100000 0.000000                 
6061             1                SM6051           7.230011 40.000000 565.685000 0.100000 0.000000                 
6062             1                SM6273           11.700018 95.000000 125.178000 0.200000 0.000000                 
6063             1                1001075          9.813615 100.000000 69.322000 0.300000 0.000000                 
6064             1                1001583          21.920034 2.000000 2200.000000 0.300000 0.000000                 
6065             3                SM6025           8.554369 13.307326 905.097000 0.100000 0.000000                 
610              MainSt           1                935040   3.523594 61.200000 221.035458 0.470344 0.000000        
6104             3                SM6601           31.170048 40.000000 1979.899000 0.100000 0.000000                 
6106             3                SM6147           17.440027 40.000000 1131.400000 0.100000 0.000000                 
6107             3                SM6145           8.150013 40.000000 1131.400000 0.100000 0.000000                 
6108             3                SM6145           22.870035 40.000000 3535.500000 0.100000 0.000000                 
6109             3                SM6175           5.290008 40.000000 919.200000 0.100000 0.000000                 
6110             3                SM6143           17.450027 40.000000 2404.200000 0.100000 0.000000                 
6111             3                SM6137           19.090029 40.000000 1909.200000 0.100000 0.000000                 
6112             3                SM6133           10.570016 40.000000 1838.500000 0.100000 0.000000                 
6113             3                SM6133           28.900045 40.000000 1555.600000 0.100000 0.000000                 
6115             1                1001075          5.461208 100.000000 38.577000 0.300000 0.000000                 
6118             1                SM6381           4.642007 40.000000 1909.448819 2.000000 0.000000                 
6119             1                SM6391           1.639003 40.000000 2185.039370 2.000000 0.000000                 
6120             1                SM6393           3.767506 40.000000 2928.149606 2.000000 0.000000                 
6121             1                SM_Weir2         31.790049 30.000000 890.955000 0.100000 0.000000                 
6122             1                SM_Weir2         10.410016 30.000000 1909.188000 0.100000 0.000000                 
6123             1                SM6383           26.394541 40.000000 1962.222000 2.000000 0.000000                 
6124             3                SM6315E          47.490073 45.000000 1385.929000 0.100000 0.000000                 
6125             1                1001583          70.920109 2.000000 2276.884000 0.100000 0.000000                 
6126             1                SM6041           11.910018 20.000000 848.528000 0.100000 0.000000                 
6127             1                SM6049           24.930038 20.000000 1767.767000 0.100000 0.000000                 
6128             1                SM6273           9.130014 95.000000 97.682000 0.200000 0.000000                 
6140             3                SM6629           7.630012 10.000000 7.630000 0.200000 0.000000                 
6613             3                SM6613           31.170048 7.000000 84.853000 0.100000 0.000000                 
6617             3                SM6617           6.500010 7.000000 42.426000 0.100000 0.000000                 
6641             3                SM6641           12.070019 7.000000 84.853000 0.100000 0.000000                 
6643             3                SM6643           11.110017 7.000000 63.640000 0.100000 0.000000                 
7007             2                1007023          15.580024 7.000000 127.279000 0.100000 0.000000                 
7021             2                1006947          10.310016 7.000000 63.640000 0.100000 0.000000                 
7023             3                1006915          16.630026 7.000000 116.673000 0.100000 0.000000                 
70231            3                SM70231          64.980100 10.000000 64.980000 0.200000 0.000000                 
7037             2                CB7037           130.710202 7.000000 141.421000 0.100000 0.000000                 
7045             2                1002103          73.380113 7.000000 254.558000 0.100000 0.000000                 
7047             2                1002113          19.620030 7.000000 148.492000 0.100000 0.000000                 
70551            2                CB70551          19.650030 5.000000 17.678000 0.100000 0.000000                 
70553            2                CB70553          4.500007 45.000000 848.528000 0.100000 0.000000                 
7161             2                CB7161           61.790095 7.000000 49.497000 0.100000 0.000000                 
7163             2                CB7163           23.940037 7.000000 212.132000 0.100000 0.000000                 
7403             2                CB7403           32.900051 17.000000 49.497000 0.100000 0.000000                 
7405             2                CB7405           20.740032 17.000000 106.066000 0.100000 0.000000                 
7407             2                CB7407           52.210081 17.000000 183.848000 0.100000 0.000000                 
7409             2                CB7409           31.230048 17.000000 60.104000 0.100000 0.000000                 
7411             2                CB7411           85.970133 17.000000 212.132000 0.100000 0.000000                 
7415             2                CB7415           54.930085 17.000000 141.421000 0.100000 0.000000                 
7419             3                CB7419           42.520066 17.000000 127.279000 0.100000 0.000000                 
7421             3                CB7421           41.790065 17.000000 169.706000 0.100000 0.000000                 
7423             2                CB7423           34.190053 17.000000 141.421000 0.100000 0.000000                 
7657             3                CB7657           45.850071 30.000000 22.982500 0.200000 0.000000                 
8006             1                CB1811           14.470022 15.000000 1100.000000 0.500000 0.000000                 
8050             2                CB7553           3.580006 40.000000 424.264000 0.100000 0.000000                 
8051             2                CB7103           4.420007 30.000000 2.215500 0.200000 0.000000                 
810400           1                CT10725          0.380001 100.000000 260.000000 2.000000 0.000000                 
8109             1                CB1819           12.840020 15.000000 3600.000000 0.500000 0.000000                 
8110             1                CB1819           17.000026 15.000000 2000.000000 0.500000 0.000000                 
8129             3                CB7577           4.520007 35.000000 70.230000 0.200000 0.000000                 
8130             3                CB7657           9.580015 30.000000 4.802000 0.200000 0.000000                 
8150             2                CB7561           33.270051 40.000000 2404.163000 0.100000 0.000000                 
8151             2                CB7553           32.450050 40.000000 2333.452000 0.100000 0.000000                 
8152             2                CB7557           7.730012 40.000000 1202.082000 0.100000 0.000000                 
8153             2                CB7551           10.950017 40.000000 2121.320000 0.100000 0.000000                 
8154             2                CB7151           7.880012 40.000000 848.528000 0.100000 0.000000                 
8155             2                CB7565           12.920020 40.000000 707.107000 0.100000 0.000000                 
8156             2                CB7561           25.240039 40.000000 2262.742000 0.100000 0.000000                 
8157             2                CB7567           39.120060 40.000000 1767.767000 0.100000 0.000000                 
8158             2                CB7153           21.350033 40.000000 2050.610000 0.100000 0.000000                 
8159             2                CB7155           23.820037 40.000000 3252.691000 0.100000 0.000000                 
8160             2                CB7157           94.730146 40.000000 2969.848000 0.100000 0.000000                 
8161             2                CB7133           15.900025 30.000000 1767.767000 0.100000 0.000000                 
8162             2                CB7137           20.190031 30.000000 2545.584000 0.100000 0.000000                 
8163             2                CB7137           26.270041 30.000000 1484.924000 0.100000 0.000000                 
8164             2                CB7143           52.330081 35.000000 813.082700 0.200000 0.000000                 
8165             2                CB7141           7.490012 35.000000 116.376600 0.200000 0.000000                 
8166             2                CB7607           4.750007 35.000000 73.803600 0.200000 0.000000                 
8167             2                CB7627           14.750023 18.000000 3300.000000 0.700000 0.000000                 
8168             2                CB7627           6.860011 18.000000 1200.000000 0.700000 0.000000                 
8169             2                CB7625           50.180077 13.500000 5250.000000 0.700000 0.000000                 
8170             2                CB7623           17.360027 13.500000 2700.000000 0.700000 0.000000                 
81711            2                CB7631           40.970063 35.000000 636.575500 0.200000 0.000000                 
81712            2                CB7635           20.480032 35.000000 318.210100 0.200000 0.000000                 
8172             2                CB7129           17.510027 18.000000 3600.000000 0.700000 0.000000                 
8173             2                CB7641           19.330030 35.000000 300.341800 0.200000 0.000000                 
8174             2                CB7141           8.950014 35.000000 139.061500 0.200000 0.000000                 
8175             3                CB7577           10.410016 35.000000 161.746400 0.200000 0.000000                 
8176             2                CB7597           7.870012 35.000000 122.280900 0.200000 0.000000                 
8177             3                CB7609           38.080059 35.000000 591.671800 0.200000 0.000000                 
8178             3                CB7593           10.080016 35.000000 156.619000 0.200000 0.000000                 
8179             3                CB7589           8.640013 45.000000 848.528000 0.100000 0.000000                 
8180             3                CB7589           6.520010 45.000000 353.553000 0.100000 0.000000                 
8181             3                CB7587           9.660015 45.000000 707.107000 0.100000 0.000000                 
8182             3                CB7585           6.260010 45.000000 707.107000 0.100000 0.000000                 
8183             3                CB7601           11.990019 45.000000 1626.346000 0.100000 0.000000                 
8184             2                CB7603           6.960011 45.000000 707.107000 0.100000 0.000000                 
8185             2                CB7107           10.680016 45.000000 1484.924000 0.100000 0.000000                 
8186             2                CB7109           7.610012 40.000000 989.949000 0.100000 0.000000                 
8187             2                CB7121           25.400039 40.000000 1626.346000 0.100000 0.000000                 
8197             2                CB7151           6.000009 40.000000 707.107000 0.100000 0.000000                 
8199             2                CB7991           7.400011 40.000000 494.975000 0.100000 0.000000                 
91000            1                1001359          200.000309 20.000000 200.000000 0.100000 0.000000                 
910400           1                ct10749          170.740264 4.700000 17.000000 1.000000 0.000000                 
910403           1                CT10711          189.360292 4.700000 17.000000 1.000000 0.000000                 
934093           1                934093           1.709480 61.662631 154.639474 0.371326 0.000000                 
934093_1         1                934093           1.722411 80.038004 154.546487 0.371326 0.000000                 
934093_3         1                934093           2.575910 78.000000 188.988043 0.371326 0.000000                 
934093_4         1                934093           1.475810 73.000000 143.048783 0.371326 0.000000                 
934097           1                934097           1.707619 85.100000 153.873710 0.081445 0.000000                 
934107           1                934107           2.599713 61.070000 189.859234 0.099467 0.000000                 
934111           1                934111           0.342628 44.954495 68.928997 1.637536 0.000000                 
934125           1                934125           1.045604 53.889334 120.551991 0.000000 0.000000                 
934125_1         1                934125           0.562569 71.690000 88.319549 0.000000 0.000000                 
934126           1                934126           5.125784 46.164616 266.606594 0.153435 0.000000                 
934126_2         1                934126           3.462419 81.818182 220.212124 0.153435 0.000000                 
934126_Public    Way              1                934126   2.176839 100.000000 173.732931 0.153435 0.000000        
934130_1         1                934130           1.452332 83.838384 142.621300 0.214882 0.000000                 
934136           1                934136           1.825852 93.000000 159.111567 0.164195 0.000000                 
934139           1                934139           0.917135 100.000000 112.767911 2.044486 0.000000                 
934141           1                934141           0.849046 76.000000 108.501247 0.160831 0.000000                 
934143           1                934143           0.629908 100.000000 93.456058 0.201005 0.000000                 
935040           1                935040           4.206823 90.000000 241.516107 0.470344 0.000000                 
AR-001-P1        2                1002191          77.100119 9.000000 0.186490 0.001000 0.000000                 
AR-003-P         3                1002201          82.700128 9.000000 0.199950 0.001000 0.000000                 
AR-028-P1        2                CB70151          529.000817 17.500000 2.866820 0.200000 0.000000                 
AR-028-P2        2                CB70151          24.600038 17.500000 0.133180 0.200000 0.000000                 
Binney           St               South            1        ALSD_5   1.054550 94.200000 120.921212 0.181062        
Binney           Street           Public           Way      1        934214   2.303512 97.000000 178.716315      
BM-001-P         2                BMCB1-999        2553.403942 9.000000 47.273160 0.001000 0.000000                 
CAM016           1                934075           3.929246 93.410000 233.412219 0.815076 0.000000                 
CAM1             1                935006           10.898017 38.114000 480.600000 0.000000 0.000000                 
CAM10            1                933049           14.838481 46.941844 634.800000 0.095668 0.000000                 
CAM11            1                935015           12.445701 36.434400 476.100000 0.054655 0.000000                 
CAM115           1                933075           0.645999 100.000000 636.600000 0.637389 0.000000                 
CAM116           1                933163           0.678663 100.000000 750.000000 0.074196 0.000000                 
CAM117           1                934215           6.593161 67.400000 279.000000 0.118612 0.000000                 
CAM118           1                933120           5.332496 58.965591 221.300000 0.383134 0.000000                 
CAM12            1                935012           19.135386 35.465400 538.900000 0.205700 0.000000                 
CAM120           1                934228           9.093396 43.200000 891.800000 0.063950 0.000000                 
CAM121           1                934073           8.027990 67.800000 315.700000 0.355728 0.000000                 
CAM122           1                934127           18.108214 59.200000 568.800000 0.036234 0.000000                 
CAM123           1                934123           8.407139 48.572038 387.000000 0.454314 0.000000                 
CAM123-parklot7  1                parklot7-CAM123  0.440001 100.000000 387.000000 0.000000 0.000000                 
CAM124           1                933286           1.590409 37.667599 309.300000 0.044065 0.000000                 
CAM125           1                933275           0.000000 0.000000 0.000000 0.270377 0.000000                 
CAM126           1                935018           0.000000 0.000000 0.000000 0.027818 0.000000                 
CAM127           1                934991           10.495659 90.500000 84.700000 0.000000 0.000000                 
CAM128           1                933241           0.000000 0.000000 0.000000 0.344904 0.000000                 
CAM129           1                933160           0.000000 0.000000 0.000000 0.025957 0.000000                 
CAM13            1                935023           13.689236 82.800000 792.500000 0.023800 0.000000                 
CAM130           1                933336           5.740009 90.000000 282.114417 0.389947 0.000000                 
CAM131           1                933324           1.000002 90.000000 117.752283 0.138981 0.000000                 
CAM132           1                933339           1.000002 90.000000 117.752283 0.611857 0.000000                 
CAM14            1                935003           5.648009 43.605000 354.100000 0.208072 0.000000                 
CAM15            1                933009           4.398334 56.842500 255.200000 2.077238 0.000000                 
CAM17            1                934039           16.092589 39.270000 911.400000 0.095731 0.000000                 
CAM18            1                934006           15.889684 42.322500 402.400000 0.000000 0.000000                 
CAM19            1                933067           4.242119 65.126050 359.100000 0.271156 0.000000                 
CAM2             1                935005           9.835015 43.346600 405.900000 0.054450 0.000000                 
CAM20            1                935020           12.715473 55.200000 705.800000 0.278809 0.000000                 
CAM21            1                934052           14.060829 38.307800 766.500000 0.036192 0.000000                 
CAM22            1                933058           8.516937 37.437648 447.600000 0.650939 0.000000                 
CAM23            1                933034           5.300188 47.850000 426.000000 0.292633 0.000000                 
CAM24            1                934045           7.318834 52.300000 444.700000 0.335227 0.000000                 
CAM25            1                934062           9.998485 58.900000 501.800000 0.352989 0.000000                 
CAM26            1                933076           10.700017 34.520625 535.100000 0.207191 0.000000                 
CAM27            1                933091           3.006804 81.726865 196.100000 0.084269 0.000000                 
CAM28            1                934118           2.605550 81.055668 347.100000 1.842926 0.000000                 
CAM28-parklot5   1                934118           0.320000 100.000000 347.100000 1.842926 0.000000                 
CAM29            1                934069           8.131320 38.356602 636.600000 0.493163 0.000000                 