[TITLE]
  XP File Date Stamp 12.00CP MINLEN5CP SPATIAL0.55 Input and Output FilesSW

[OPTIONS]
FLOW_UNITS           CFS
INFILTRATION         HORTON
FLOW_ROUTING         DYNWAVE
START_DATE           11/15/2006
START_TIME           00:00:00
REPORT_START_DATE    11/15/2006
REPORT_START_TIME    00:00:00
END_DATE             11/17/2006
END_TIME             00:00:00
SWEEP_START          01/01
SWEEP_END            12/31
DRY_DAYS             0
REPORT_STEP          08:20:00
WET_STEP             00:05:00
DRY_STEP             23:00:00
ROUTING_STEP         0:01:00 
ALLOW_PONDING        NO
INERTIAL_DAMPING     NONE
VARIABLE_STEP        0.75
LENGTHENING_STEP     0
MIN_SURFAREA         12.566
NORMAL_FLOW_LIMITED  SLOPE
SKIP_STEADY_STATE    NO
IGNORE_RAINFALL      NO
FORCE_MAIN_EQUATION  H-W
LINK_OFFSETS         DEPTH

[EVAPORATION]
;;Type       Parameters
;;---------- ----------
MONTHLY      0.39   0.79   1.92   3.17   5.03   6.21   8.12   7.09   4.76   2.21   0.67   0.34  

[RAINGAGES]
;;               Rain      Recd.  Snow   Data      
;;Name           Type      Freq.  Catch  Source    
;;-------------- --------- ------ ------ ----------
GAGE1            CUMULATIVE 0:06   1.0    TIMESERIES RainSeries1     

[SUBCATCHMENTS]
;;                                                 Total    Pcnt.             Pcnt.    Curb     Snow    
;;Name           Raingage         Outlet           Area     Imperv   Width    Slope    Length   Pack    
;;-------------- ---------------- ---------------- -------- -------- -------- -------- -------- --------
;  *  JK  NAMEW  NGTO  WIDTH  AREA    %IMP  SLP   IMPN          PERVN   IDS    PDS    SUCT HYDCON SMDMAX RMAXINF
Basin741         GAGE1            Basin74          24.92    0.0      1.0      4.7      0                        
Basin23.2        GAGE1            nBasin23.2       8.94     0.0      1.0      2.4      0                        
Basin23.1        GAGE1            nBasin23.1       8.94     0.0      1.0      2.4      0                        
Basin831         GAGE1            Basin83          28.81    0.0      1.0      5.2      0                        
Basin891         GAGE1            Basin89          104.4    0.0      1.0      3.0      0                        
Basin90.1        GAGE1            nBasin90.1       8.155    0.0      1.0      6.6      0                        
Basin90.2        GAGE1            nBasin90.2       8.155    0.0      1.0      6.6      0                        
Basin841         GAGE1            Basin84          9.49     0.0      1.0      5.8      0                        
Basin241         GAGE1            Basin24          9.68     0.0      1.0      1.9      0                        
Basin281         GAGE1            Basin28          147.96001 0.0      1.0      2.8      0                        
Basin271         GAGE1            Basin27          59.13    0.0      1.0      4.7      0                        
Basin261         GAGE1            Basin26          16.59    0.0      1.0      3.4      0                        
Basin251         GAGE1            Basin25          12.27    0.0      1.0      1.6      0                        
Basin211         GAGE1            Basin21          29.72    0.0      1.0      0.5      0                        
Basin221         GAGE1            Basin22          30.45    0.0      1.0      4.5      0                        

[SUBAREAS]
;;Subcatchment   N-Imperv   N-Perv     S-Imperv   S-Perv     PctZero    RouteTo    PctRouted 
;;-------------- ---------- ---------- ---------- ---------- ---------- ---------- ----------
Basin741         0.0        0          0          0          25         OUTLET    
Basin23.2        0.0        0          0          0          25         OUTLET    
Basin23.1        0.0        0          0          0          25         OUTLET    
Basin831         0.0        0          0          0          25         OUTLET    
Basin891         0.0        0          0          0          25         OUTLET    
Basin90.1        0.0        0          0          0          25         OUTLET    
Basin90.2        0.0        0          0          0          25         OUTLET    
Basin841         0.0        0          0          0          25         OUTLET    
Basin241         0.0        0          0          0          25         OUTLET    
Basin281         0.0        0          0          0          25         OUTLET    
Basin271         0.0        0          0          0          25         OUTLET    
Basin261         0.0        0          0          0          25         OUTLET    
Basin251         0.0        0          0          0          25         OUTLET    
Basin211         0.0        0          0          0          25         OUTLET    
Basin221         0.0        0          0          0          25         OUTLET    

[INFILTRATION]
;;Subcatchment   MaxRate    MinRate    Decay      DryTime    MaxInfil  
;;-------------- ---------- ---------- ---------- ---------- ----------
Basin741         72.0       34.0       1.         .00001     0         
Basin23.2        83.0       15.0       1.         0.00001    0         
Basin23.1        83.0       15.0       1.         0.00001    0         
Basin831         80.0       20.0       1.         0.00001    0         
Basin891         76.0       10.0       1.         0.00001    0         
Basin90.1        76.0       60.0       1.         0.00001    0         
Basin90.2        73.0       60.0       1          0.00001    0         
Basin841         80.0       40.0       1.         0.00001    0         
Basin241         83.0       47.0       1.         0.00001    0         
Basin281         77.0       0.0        1.         0.00001    0         
Basin271         76.0       50.0       1.         0.00001    0         
Basin261         77.0       33.0       1.         0.00001    0         
Basin251         90.0       32.0       1.         0.00001    0         
Basin211         89.0       0.0        1.         0.00001    0         
Basin221         81.0       5.0        1.         0.00001    0         

[JUNCTIONS]
;;               Invert     Max.       Init.      Surcharge  Ponded    
;;Name           Elev.      Depth      Depth      Depth      Area      
;;-------------- ---------- ---------- ---------- ---------- ----------
Basin21          441.00     6.00       .00        0          0         
Basin22          440.00     6.00       .00        0          0         
nBasin23.1       448.07     6.50       .00        0          0         
nBasin23.2       453.69     8.54       .00        0          0         
Basin24          458.84     4.21       .00        0          0         
Basin25          478.00     4.59       .00        0          0         
Basin26          475.00     15.00      .00        0          0         
Basin27          491.86     5.14       .00        0          0         
Basin28          511.00     6.00       .00        0          0         
Basin74          492.00     2.80       .00        0          0         
Basin83          467.65     1.75       .00        0          0         
Basin84          467.87     3.05       .00        0          0         
Basin89          480.00     4.00       .00        0          0         
nBasin90.1       477.22     2.05       .00        0          0         
nBasin90.2       472.90     3.30       .00        0          0         
;   *    JUNCTION       GRELEV       Z      QINST      Y
N177             450.00     9.23       .00        0          0         
N179             446.48     5.25       .00        0          0         
N180             445.98     3.79       .00        0          0         
N183             461.58     4.60       .00        0          0         
N187             474.69     2.75       .00        0          0         
N404             439.29     5.71       .00        0          0         
N447.1           477.64     4.00       .00        0          0         
N477             474.00     11.76      .00        0          0         
Node105          439.63     5.37       .00        0          0         
Node168          500.00     5.00       .00        0          0         
Node171          494.00     5.00       .00        0          0         
Node172          493.97     5.03       .00        0          0         
Node174          489.81     8.19       .00        0          0         
Node175          490.99     5.01       .00        0          0         
Node205          437.00     8.00       .00        0          0         
Node232          445.96     4.65       .00        0          0         
Node233          445.20     3.30       .00        0          0         
Node256          445.00     4.00       .00        0          0         
Node385          462.18     5.83       .00        0          0         
Node386          472.98     3.15       .00        0          0         
Node388          459.26     5.30       .00        0          0         
Node92           468.55     2.95       .00        0          0         
Node93           463.69     4.35       .00        0          0         
Node94           458.73     4.29       .00        0          0         
Node95           458.46     3.54       .00        0          0         
Node96           458.16     4.84       .00        0          0         
Node99           443.00     6.00       .00        0          0         

[OUTFALLS]
;;               Invert     Outfall    Stage/Table      Tide
;;Name           Elev.      Type       Time Series      Gate
;;-------------- ---------- ---------- ---------------- ----
;  *    Extran outfall nodes I1 - free I2 - gates
Node108          435.0      FREE                        NO

[STORAGE]
;;               Invert   Max.     Init.    Shape      Shape                      Ponded   Evap.   
;;Name           Elev.    Depth    Depth    Curve      Params                     Area     Frac.   
;;-------------- -------- -------- -------- ---------- -------- -------- -------- -------- --------
;  * JSTORE ZTOP ASTORE   NUMST
Node116          464.0    4.0      0.0      FUNCTIONAL 5000.0   0        0        0        0       
;  * JSTORE ZTOP ASTORE   NUMST
Node107          436.0    14.0     5.0      FUNCTIONAL 43560.0  0        0        0        0       
;  * JSTORE ZTOP ASTORE   NUMST
Node165          510.0    5.0      0.0      FUNCTIONAL 60619.0  0        0        0        0       
;  * JSTORE ZTOP ASTORE   NUMST
Node166          505.63   4.37     0.0      FUNCTIONAL 56628.0  0        0        0        0       
;  * JSTORE ZTOP ASTORE   NUMST
Node167          502.89   5.11     0.0      FUNCTIONAL 52272.0  0        0        0        0       
;  * JSTORE ZTOP ASTORE   NUMST
Node200          445.0    4.0      0.0      TABULAR    Node200                    0        0       

[CONDUITS]
;;               Inlet            Outlet                      Manning    Inlet      Outlet     Init.      Max.      
;;Name           Node             Node             Length     N          Offset     Offset     Flow       Flow      
;;-------------- ---------------- ---------------- ---------- ---------- ---------- ---------- ---------- ----------
;   *   NCOND NJ1 NJ2    QO  NKLASS AFULL DEEP WIDE  LEN       ZP1  ZP2  ROUGH  STHETA  SPHI  ENTK  EXITK  OTHERK
L172             nBasin23.1       N179             383.62     0.014      0.0        0.1        0.0        0         
L173             N179             N180             176.54     0.014      0.0        0.1        0.0        0         
L180             Basin74          N187             396.24     0.014      0.0        0.0        0.0        0         
Link355          Node385          N177             140.84     0.014      0.47       0.0        0.0        0         
Link360          N183             Node388          51.75      0.014      0.0        0.0        0.0        0         
Link361          Basin83          N183             346.64     0.014      0.0        1.1        0.0        0         
Link106          N447.1           nBasin90.1       14.67      0.014      0.0        0.1        0.0        0         
Link107          Basin89          N447.1           388.83     0.014      0.0        0.0        0.0        0         
Link108          nBasin90.1       nBasin90.2       262.27     0.014      0.0        0.1        0.0        0         
Link109          nBasin90.2       Node386          29.04      0.014      0.0        0.15       0.0        0         
Link110          Node386          Basin84          308.31     0.014      0.0        0.1        0.0        0         
Link111          Basin84          N183             308.36     0.014      0.0        0.1        0.0        0         
Link112          Node388          Basin24          33.48      0.014      0.0        0.0        0.0        0         
Link113          N187             Node92           291.75     0.014      0.0        0.1        0.0        0         
Link114          Node92           Node93           435.95     0.014      0.0        0.1        0.0        0         
Link115          Node93           Node385          48.24      0.014      0.0        0.08       0.0        0         
Link116          Basin24          Node94           254.1      0.014      0.0        0.114      0.0        0         
Link117          Node94           Node95           169.64     0.014      0.0        0.0        0.0        0         
Link118          Node95           Node96           327.55     0.014      0.0        0.0        0.0        0         
Link123          Node116          Node96           885.99     0.014      0.0        0.0        0.0        0         
Link129          Node105          Node205          418.28     0.014      0.0        0.0        0.0        0         
Link130          Node205          Node107          190.46     0.014      0.0        0.0        0.0        0         
Link131          Node107          Node108          134.18     0.014      3.21       1.28       0.0        0         
Link192          Basin28          Node165          123.31     0.014      0.0        0.0        0.0        0         
Link193          Node165          Node166          197.25     0.014      0.0        1.97       0.0        0         
Link194          Node166          Node167          414.67     0.014      1.96       0.97       0.0        0         
Link198          Node168          Node171          422.44     0.014      0.0        0.0        0.0        0         
Link199          Node171          Node172          85.52      0.014      0.03       0.0        0.0        0         
Link200          Node172          Basin27          147.24     0.014      0.0        0.0        0.0        0         
Link201          Basin27          Node174          106.36     0.014      0.0        0.0        0.0        0         
Link202          Node174          Node175          61.76      0.014      0.0        0.0        0.0        0         
Link203          Node175          Basin26          56.95      0.014      0.0        8.51       0.0        0         
Link204          Basin26          N477             858.17     0.014      0.0        0.0        0.0        0         
Link205          N477             Basin25          130.85     0.014      5.48       0.51       0.0        0         
Link207          Basin25          Node116          992.39     0.014      0.0        0.0        0.0        0         
Link237          N177             nBasin23.1       389.93     0.014      0.0        0.0        0.0        0         
Link238          N180             Node200          133.94     0.014      0.0        0.7        0.0        0         
Link240          Node96           Node99           798.77     0.014      0.0        0.0        0.0        0         
Link246          Node99           Basin21          737.71     0.014      0.0        0.0        0.0        0         
Link248          Basin21          Basin22          466.2      0.014      0.0        0.0        0.0        0         
Link249          Basin22          N404             296.57     0.014      0.0        0.21       0.0        0         
Link329          nBasin23.2       Node232          556.77     0.014      0.0        0.1        0.0        0         
Link330          Node232          Node233          188.9      0.014      0.0        0.0        0.0        0         
Link332          Node233          Node200          289.48     0.014      0.0        0.0        0.0        0         
Link364          nBasin23.2       N177             203.22     0.014      0.0        0.0        0.0        0         
Link368          Node256          Node99           83.5       0.014      0.0        1.0        0.0        0         
1458.1           Node167          Node168          105.06     0.014      0.98       3.83       0.0        0         
ditch            Node167          Node168          105.06     0.014      0.0        0.0        0.0        0         
1544.1           N404             Node105          157.92     0.014      0.16       1.67       0.0        0         
1544.2           N404             Node105          157.92     0.014      0.0        0.0        0.0        0         

[WEIRS]
;;               Inlet            Outlet           Weir         Crest      Disch.     Flap End      End       
;;Name           Node             Node             Type         Height     Coeff.     Gate Con.     Coeff.    
;;-------------- ---------------- ---------------- ------------ ---------- ---------- ---- -------- ----------
WEIR1atNode200-Node256 Node200          Node256          TRANSVERSE   3.0        2.1        NO   0        0         
WEIR2atNode200-Node99 Node200          Node99           TRANSVERSE   3.5        3.0        NO   0        0         

[XSECTIONS]
;;Link           Shape        Geom1            Geom2      Geom3      Geom4      Barrels   
;;-------------- ------------ ---------------- ---------- ---------- ---------- ----------
L172             CIRCULAR     2.0              0.0        0.0        0.0        1.0       
L173             CIRCULAR     2.0              0.0        0.0        0.0        1.0       
L180             CIRCULAR     1.0              0.0        0.0        0.0        1.0       
Link355          CIRCULAR     1.5              0.0        0.0        0.0        1.0       
Link360          CIRCULAR     2.0              0.0        0.0        0.0        1.0       
Link361          CIRCULAR     1.0              0.0        0.0        0.0        1.0       
Link106          CIRCULAR     1.0              0.0        0.0        0.0        1.0       
Link107          IRREGULAR    1                0          0          0          1         
Link108          CIRCULAR     1.25             0.0        0.0        0.0        1.0       
Link109          CIRCULAR     1.5              0.0        0.0        0.0        1.0       
Link110          CIRCULAR     1.5              0.0        0.0        0.0        1.0       
Link111          CIRCULAR     1.5              0.0        0.0        0.0        1.0       
Link112          CIRCULAR     2.5              0.0        0.0        0.0        1.0       
Link113          CIRCULAR     1.0              0.0        0.0        0.0        1.0       
Link114          CIRCULAR     1.5              0.0        0.0        0.0        1.0       
Link115          CIRCULAR     1.5              0.0        0.0        0.0        1.0       
Link116          IRREGULAR    2                0          0          0          1         
Link117          IRREGULAR    3                0          0          0          1         
Link118          IRREGULAR    4                0          0          0          1         
Link123          IRREGULAR    5                0          0          0          1         
Link129          IRREGULAR    6                0          0          0          1         
Link130          IRREGULAR    7                0          0          0          1         
Link131          IRREGULAR    8                0          0          0          1         
Link192          IRREGULAR    9                0          0          0          1         
Link193          CIRCULAR     1.5              0.0        0.0        0.0        1.0       
Link194          CIRCULAR     1.0              0.0        0.0        0.0        1.0       
Link198          IRREGULAR    10               0          0          0          1         
Link199          CIRCULAR     2.0              0.0        0.0        0.0        1.0       
Link200          CIRCULAR     5.0              0.0        0.0        0.0        1.0       
Link201          CIRCULAR     2.0              0.0        0.0        0.0        1.0       
Link202          IRREGULAR    11               0          0          0          1         
Link203          CIRCULAR     3.0              0.0        0.0        0.0        1.0       
Link204          IRREGULAR    12               0          0          0          1         
Link205          CIRCULAR     3.0              0.0        0.0        0.0        1.0       
Link207          IRREGULAR    13               0          0          0          1         
Link237          CIRCULAR     1.5              0.0        0.0        0.0        1.0       
Link238          CIRCULAR     2.5              0.0        0.0        0.0        1.0       
Link240          IRREGULAR    14               0          0          0          1         
Link246          IRREGULAR    15               0          0          0          1         
Link248          CIRCULAR     4.0              0.0        0.0        0.0        1.0       
Link249          CIRCULAR     4.0              0.0        0.0        0.0        1.0       
Link329          CIRCULAR     1.0              0.0        0.0        0.0        1.0       
Link330          CIRCULAR     1.0              0.0        0.0        0.0        1.0       
Link332          CIRCULAR     1.0              0.0        0.0        0.0        1.0       
Link364          CIRCULAR     1.5              0.0        0.0        0.0        1.0       
Link368          CIRCULAR     1.5              0.0        0.0        0.0        1.0       
1458.1           CIRCULAR     0.667            0.0        0.0        0.0        1.0       
ditch            IRREGULAR    16               0          0          0          1         
1544.1           RECT_CLOSED  3.0              5.0        0.0        0.0        1.0       
1544.2           RECT_CLOSED  4.5              6.0        0.0        0.0        1.0       
WEIR1atNode200-Node256 RECT_OPEN    4                1          0          0         
WEIR2atNode200-Node99 RECT_OPEN    4                1          0          0         

[TRANSECTS]

NC 0.05     0.05     0.05    
X1 1                 5        40       44.343   0.0      0.0      0.0      1        0       
GR 482      0        483      40       480      43       483.276  44.343   485      58      

NC 0.05     0.05     0.05    
X1 2                 6        0        22       0.0      0.0      0.0      1        0       
GR 461      0        461      6        458      10       458      14       461      18      
GR 461      22      

NC 0.05     0.05     0.05    
X1 3                 6        0        22       0.0      0.0      0.0      1        0       
GR 461      0        461      6        458      10       458      14       461      18      
GR 461      22      

NC 0.05     0.05     0.05    
X1 4                 6        0        22       0.0      0.0      0.0      1        0       
GR 461      0        461      6        458      10       458      14       461      18      
GR 461      22      

NC 0.05     0.05     0.05    
X1 5                 5        0        26       0.0      0.0      0.0      1        0       
GR 454.2    0        453.9    6        451.9    8        450      22       454.2    26      

NC 0.05     0.05     0.05    
X1 6                 4        0        6        0.0      0.0      0.0      1        0       
GR 8        0        0        2        0        4        8        6       

NC 0.05     0.05     0.05    
X1 7                 4        0        6        0.0      0.0      0.0      1        0       
GR 8        0        0        2        0        4        8        6       

NC 0.05     0.05     0.05    
X1 8                 4        0        20.1     0.0      0.0      0.0      1        0       
GR 10       0        0        0.1      0        20       10       20.1    

NC 0.05     0.05     0.05    
X1 9                 6        0        22       0.0      0.0      0.0      1        0       
GR 461      0        461      6        456      10       456      14       461      18      
GR 461      22      

NC 0.05     0.05     0.05    
X1 10                6        0        22       0.0      0.0      0.0      1        0       
GR 461      0        461      6        456      10       456      14       461      18      
GR 461      22      

NC 0.05     0.05     0.05    
X1 11                6        0        22       0.0      0.0      0.0      1        0       
GR 461      0        461      6        456      10       456      14       461      18      
GR 461      22      

NC 0.05     0.05     0.05    
X1 12                4        0        30       0.0      0.0      0.0      1        0       
GR 10       0        0        5        0        25       10       30      

NC 0.05     0.05     0.05    
X1 13                6        0        22       0.0      0.0      0.0      1        0       
GR 461      0        461      6        458      10       458      14       461      18      
GR 461      22      

NC 0.05     0.05     0.05    
X1 14                5        0        26       0.0      0.0      0.0      1        0       
GR 454.2    0        453.9    6        451.9    8        450      22       454.2    26      

NC 0.05     0.05     0.05    
X1 15                5        0        26       0.0      0.0      0.0      1        0       
GR 454.2    0        453.9    6        451.9    8        450      22       454.2    26      

NC 0.05     0.05     0.05    
X1 16                6        0        22       0.0      0.0      0.0      1        0       
GR 461      0        461      6        458      10       458      14       461      18      
GR 461      22      

[LOSSES]
;;Link           Inlet      Outlet     Average    Flap Gate 
;;-------------- ---------- ---------- ---------- ----------

[DWF]
;;                                Average    Time      
;;Node           Parameter        Value      Patterns  
;;-------------- ---------------- ---------- ----------
Basin89          FLOW             0.48      

[CURVES]
;;Name           Type       X-Value    Y-Value   
;;-------------- ---------- ---------- ----------
node200          Storage    0.0000     20948.0040
node200                     1          23593.1850
node200                     1.5000     24915.7755
node200                     2.0000     26238.3660
node200                     2.5000     27560.9565
node200                     3.0000     28883.5470
node200                     3.5000     30206.1375
node200                     4.0000     31528.7280

[TIMESERIES]
;;Name           Date       Time       Value     
;;-------------- ---------- ---------- ----------
RainSeries1      11/15/2006 00:00      .0055     
RainSeries1                 00:06      .01075    
RainSeries1                 00:12      .01575    
RainSeries1                 00:18      .0205     
RainSeries1                 00:24      .025      
RainSeries1      11/15/2006 00:30      .0295     
RainSeries1                 00:36      .03425    
RainSeries1                 00:42      .03925    
RainSeries1                 00:48      .0445     
RainSeries1                 00:54      .05       
RainSeries1      11/15/2006 01:00      .057      
RainSeries1                 01:06      .06425    
RainSeries1                 01:12      .07175    
RainSeries1                 01:18      .0795     
RainSeries1                 01:24      .0875     
RainSeries1      11/15/2006 01:30      .095      
RainSeries1                 01:36      .1025     
RainSeries1                 01:42      .10975    
RainSeries1                 01:48      .1175     
RainSeries1                 01:54      .125      
RainSeries1      11/15/2006 02:00      .13275    
RainSeries1                 02:06      .14875    
RainSeries1                 02:12      .157      
RainSeries1                 02:18      .165      
RainSeries1                 02:24      .173      
RainSeries1      11/15/2006 02:30      .181      
RainSeries1                 02:36      .189      
RainSeries1                 02:42      .197      
RainSeries1                 02:48      .205      
RainSeries1                 02:54      .21275    
RainSeries1      11/15/2006 03:00      .22075    
RainSeries1                 03:06      .22875    
RainSeries1                 03:12      .23675    
RainSeries1                 03:18      .245      
RainSeries1                 03:24      .25375    
RainSeries1      11/15/2006 03:30      .26275    
RainSeries1                 03:36      .2715     
RainSeries1                 03:42      .28075    
RainSeries1                 03:48      .29       
RainSeries1                 03:54      .29925    
RainSeries1      11/15/2006 04:00      .3085     
RainSeries1                 04:06      .318      
RainSeries1                 04:12      .32775    
RainSeries1                 04:18      .3375     
RainSeries1                 04:24      .3475     
RainSeries1      11/15/2006 04:30      .35775    
RainSeries1                 04:36      .36825    
RainSeries1                 04:42      .379      
RainSeries1                 04:48      .39       
RainSeries1                 04:54      .4015     
RainSeries1      11/15/2006 05:00      .41325    
RainSeries1                 05:06      .42525    
RainSeries1                 05:12      .4375     
RainSeries1                 05:18      .45       
RainSeries1                 05:24      .46225    
RainSeries1      11/15/2006 05:30      .475      
RainSeries1                 05:36      .488      