[TITLE]
 Stayton Storm

[OPTIONS]
FLOW_UNITS           CFS
INFILTRATION         HORTON
FLOW_ROUTING         DYNWAVE
START_DATE           11/15/2006
START_TIME           00:00:00
REPORT_START_DATE    11/15/2006
REPORT_START_TIME    00:00:00
END_DATE             11/17/2006
END_TIME             00:00:00
SWEEP_START          1/1
SWEEP_END            12/31
DRY_DAYS             0
REPORT_STEP          00:01:00
WET_STEP             00:05:00
DRY_STEP             24:00:00
ROUTING_STEP         0:01:00 
ALLOW_PONDING        NO
INERTIAL_DAMPING     PARTIAL
VARIABLE_STEP        0.75
LENGTHENING_STEP     0
MIN_SURFAREA         0
NORMAL_FLOW_LIMITED  FROUDE
SKIP_STEADY_STATE    NO
FORCE_MAIN_EQUATION  H-W
LINK_OFFSETS         DEPTH
MIN_SLOPE            0

[EVAPORATION]
;;Type       Parameters
;;---------- ----------
CONSTANT     0.0

[RAINGAGES]
;;               Rain      Time   Snow   Data      
;;Name           Type      Intrvl Catch  Source    
;;-------------- --------- ------ ------ ----------
SCS              TypeII    FLMod.1hr CUMULATIVE00:06 TIMESERIES *               
SCS              Type      II     FL     TIMESERIES *               
SCS              Type      B      24hr   TIMESERIES *               
SCS              Type      B      6hr    TIMESERIES *               
SCS              Type      II     CUMULATIVE00:06 TIMESERIES *               
SCS              Type      IA     CUMULATIVE24:00 TIMESERIES *               
SCS              Type      III    CUMULATIVE00:06 TIMESERIES *               
SCS              Type      II     48     TIMESERIES *               
SCS              Spillway  Design CUMULATIVE00:01 TIMESERIES *               
SCS              TypeII    FLMod.1hr.1 CUMULATIVE00:06 TIMESERIES *               
SCS              Type      II     FL     TIMESERIES *               
SCS              Type      B      24hr.1 TIMESERIES *               
SCS              Type      B      6hr.1  TIMESERIES *               
SCS              Type      II.1   CUMULATIVE00:06 TIMESERIES *               
SCS              Type      IA.1   CUMULATIVE00:06 TIMESERIES *               
SCS              Type      III.1  CUMULATIVE00:06 TIMESERIES *               
SCS              Type      II     48     TIMESERIES *               
SCS              Spillway  Design.1 CUMULATIVE00:01 TIMESERIES *               
Zone1            10min     <30yr  VOLUME TIMESERIES *               
Zone1            10min     >30yr  VOLUME TIMESERIES *               
Zone1            15min     <30yr  VOLUME TIMESERIES *               
Zone1            15min     >30yr  VOLUME TIMESERIES *               
Zone1            20min     <30yr  VOLUME TIMESERIES *               
Zone1            20min     >30yr  VOLUME TIMESERIES *               
Zone1            25min     <30yr  VOLUME TIMESERIES *               
Zone1            25min     >30yr  VOLUME TIMESERIES *               
Zone1            30min     <30yr  VOLUME TIMESERIES *               
Zone1            30min     >30yr  VOLUME TIMESERIES *               
Zone1            45min     <30yr  VOLUME TIMESERIES *               
Zone1            45min     >30yr  VOLUME TIMESERIES *               
Zone1            60min     <30yr  VOLUME TIMESERIES *               
Zone1            60min     >30yr  VOLUME TIMESERIES *               
Zone1            90min     <30yr  VOLUME TIMESERIES *               
Zone1            90min     >30yr  VOLUME TIMESERIES *               
Zone1            180min    <30yr  VOLUME TIMESERIES *               
Zone1            180min    >30yr  VOLUME TIMESERIES *               
Zone1            270min    <30yr  VOLUME TIMESERIES *               
Zone1            270min    >30yr  VOLUME TIMESERIES *               
Zone1            360min    <30yr  VOLUME TIMESERIES *               
Zone1            360min    >30yr  VOLUME TIMESERIES *               
Zone1            540min    <30yr  VOLUME TIMESERIES *               
Zone1            540min    >30yr  VOLUME TIMESERIES *               
Zone1            720min    <30yr  VOLUME TIMESERIES *               
Zone1            720min    >30yr  VOLUME TIMESERIES *               
Zone1            1080min   <30yr  VOLUME TIMESERIES *               
Zone1            1080min   >30yr  VOLUME TIMESERIES *               
Zone1            1440min   <30yr  VOLUME TIMESERIES *               
Zone1            1440min   >30yr  VOLUME TIMESERIES *               
Zone1            1800min   <30yr  VOLUME TIMESERIES *               
Zone1            1800min   >30yr  VOLUME TIMESERIES *               
Zone1            2160min   <30yr  VOLUME TIMESERIES *               
Zone1            2160min   >30yr  VOLUME TIMESERIES *               
Zone1            2880min   <30yr  VOLUME TIMESERIES *               
Zone1            2880min   >30yr  VOLUME TIMESERIES *               
Zone1            4320min   <30yr  VOLUME TIMESERIES *               
Zone1            4320min   >30yr  VOLUME TIMESERIES *               
Zone2            10min     <30yr  VOLUME TIMESERIES *               
Zone2            10min     >30yr  VOLUME TIMESERIES *               
Zone2            15min     <30yr  VOLUME TIMESERIES *               
Zone2            15min     >30yr  VOLUME TIMESERIES *               
Zone2            20min     <30yr  VOLUME TIMESERIES *               
Zone2            20min     >30yr  VOLUME TIMESERIES *               
Zone2            25min     <30yr  VOLUME TIMESERIES *               
Zone2            25min     >30yr  VOLUME TIMESERIES *               
Zone2            30min     <30yr  VOLUME TIMESERIES *               
Zone2            30min     >30yr  VOLUME TIMESERIES *               
Zone2            45min     <30yr  VOLUME TIMESERIES *               
Zone2            45min     >30yr  VOLUME TIMESERIES *               
Zone2            60min     <30yr  VOLUME TIMESERIES *               
Zone2            60min     >30yr  VOLUME TIMESERIES *               
Zone2            90min     <30yr  VOLUME TIMESERIES *               
Zone2            90min     >30yr  VOLUME TIMESERIES *               
Zone2            120min    <30yr  VOLUME TIMESERIES *               
Zone2            120min    >30yr  VOLUME TIMESERIES *               
Zone2            180min    <30yr  VOLUME TIMESERIES *               
Zone2            180min    >30yr  VOLUME TIMESERIES *               
Zone2            270min    <30yr  VOLUME TIMESERIES *               
Zone2            270min    >30yr  VOLUME TIMESERIES *               
Zone2            360min    <30yr  VOLUME TIMESERIES *               
Zone2            360min    >30yr  VOLUME TIMESERIES *               
Zone2            540min    <30yr  VOLUME TIMESERIES *               
Zone2            540min    >30yr  VOLUME TIMESERIES *               
Zone2            720min    <30yr  VOLUME TIMESERIES *               
Zone2            720min    >30yr  VOLUME TIMESERIES *               
Zone2            1080min   <30yr  VOLUME TIMESERIES *               
Zone2            1080min   >30yr  VOLUME TIMESERIES *               
Zone2            1440min   <30yr  VOLUME TIMESERIES *               
Zone2            1440min   >30yr  VOLUME TIMESERIES *               
Zone2            1800min   <30yr  VOLUME TIMESERIES *               
Zone2            1800min   >30yr  VOLUME TIMESERIES *               
Zone2            2160min   <30yr  VOLUME TIMESERIES *               
Zone2            2160min   >30yr  VOLUME TIMESERIES *               
Zone2            2880min   <30yr  VOLUME TIMESERIES *               
Zone2            2880min   >30yr  VOLUME TIMESERIES *               
Zone2            4320min   <30yr  VOLUME TIMESERIES *               
Zone2            4320min   >30yr  VOLUME TIMESERIES *               
Zone3            10min     <30yr  VOLUME TIMESERIES *               
Zone3            10min     >30yr  VOLUME TIMESERIES *               
Zone3            15min     <30yr  VOLUME TIMESERIES *               
Zone3            15min     >30yr  VOLUME TIMESERIES *               
Zone3            20min     <30yr  VOLUME TIMESERIES *               
Zone3            20min     >30yr  VOLUME TIMESERIES *               
Zone3            25min     <30yr  VOLUME TIMESERIES *               
Zone3            25min     >30yr  VOLUME TIMESERIES *               
Zone3            30min     <30yr  VOLUME TIMESERIES *               
Zone3            30min     >30yr  VOLUME TIMESERIES *               
Zone3            45min     <30yr  VOLUME TIMESERIES *               
Zone3            45min     >30yr  VOLUME TIMESERIES *               
Zone3            60min     <30yr  VOLUME TIMESERIES *               
Zone3            60min     >30yr  VOLUME TIMESERIES *               
Zone3            90min     <30yr  VOLUME TIMESERIES *               
Zone3            90min     >30yr  VOLUME TIMESERIES *               
Zone3            120min    <30yr  VOLUME TIMESERIES *               
Zone3            120min    >30yr  VOLUME TIMESERIES *               
Zone3            180min    <30yr  VOLUME TIMESERIES *               
Zone3            180min    >30yr  VOLUME TIMESERIES *               
Zone3            270min    <30yr  VOLUME TIMESERIES *               
Zone3            270min    >30yr  VOLUME TIMESERIES *               
Zone3            360min    <30yr  VOLUME TIMESERIES *               
Zone3            360min    >30yr  VOLUME TIMESERIES *               
Zone3            540min    <30yr  VOLUME TIMESERIES *               
Zone3            540min    >30yr  VOLUME TIMESERIES *               
Zone3            720min    <30yr  VOLUME TIMESERIES *               
Zone3            720min    >30yr  VOLUME TIMESERIES *               
Zone3            1080min   <30yr  VOLUME TIMESERIES *               
Zone3            1080min   >30yr  VOLUME TIMESERIES *               
Zone3            1440min   <30yr  VOLUME TIMESERIES *               
Zone3            1440min   >30yr  VOLUME TIMESERIES *               
Zone3            1800min   <30yr  VOLUME TIMESERIES *               
Zone3            1800min   >30yr  VOLUME TIMESERIES *               
Zone3            2160min   <30yr  VOLUME TIMESERIES *               
Zone3            2160min   >30yr  VOLUME TIMESERIES *               
Zone3            2880min   <30yr  VOLUME TIMESERIES *               
Zone3            2880min   >30yr  VOLUME TIMESERIES *               
Zone3            4320min   <30yr  VOLUME TIMESERIES *               
Zone3            4320min   >30yr  VOLUME TIMESERIES *               
Zone4            10min     <30yr  VOLUME TIMESERIES *               
Zone4            10min     >30yr  VOLUME TIMESERIES *               
Zone4            15min     <30yr  VOLUME TIMESERIES *               
Zone4            15min     >30yr  VOLUME TIMESERIES *               
Zone4            20min     <30yr  VOLUME TIMESERIES *               
Zone4            20min     >30yr  VOLUME TIMESERIES *               
Zone4            25min     <30yr  VOLUME TIMESERIES *               
Zone4            25min     >30yr  VOLUME TIMESERIES *               
Zone4            30min     <30yr  VOLUME TIMESERIES *               
Zone4            30min     >30yr  VOLUME TIMESERIES *               
Zone4            45min     <30yr  VOLUME TIMESERIES *               
Zone4            45min     >30yr  VOLUME TIMESERIES *               
Zone4            60min     <30yr  VOLUME TIMESERIES *               
Zone4            60min     >30yr  VOLUME TIMESERIES *               
Zone4            90min     <30yr  VOLUME TIMESERIES *               
Zone4            90min     >30yr  VOLUME TIMESERIES *               
Zone4            120min    <30yr  VOLUME TIMESERIES *               
Zone4            120min    >30yr  VOLUME TIMESERIES *               
Zone4            180min    <30yr  VOLUME TIMESERIES *               
Zone4            180min    >30yr  VOLUME TIMESERIES *               
Zone4            270min    <30yr  VOLUME TIMESERIES *               
Zone4            270min    >30yr  VOLUME TIMESERIES *               
Zone4            360min    <30yr  VOLUME TIMESERIES *               
Zone4            360min    >30yr  VOLUME TIMESERIES *               
Zone4            540min    <30yr  VOLUME TIMESERIES *               
Zone4            540min    >30yr  VOLUME TIMESERIES *               
Zone4            720min    <30yr  VOLUME TIMESERIES *               
Zone4            720min    >30yr  VOLUME TIMESERIES *               
Zone4            1080min   <30yr  VOLUME TIMESERIES *               
Zone4            1080min   >30yr  VOLUME TIMESERIES *               
Zone4            1440min   <30yr  VOLUME TIMESERIES *               
Zone4            1440min   >30yr  VOLUME TIMESERIES *               
Zone4            1800min   <30yr  VOLUME TIMESERIES *               
Zone4            1800min   >30yr  VOLUME TIMESERIES *               
Zone4            2160min   <30yr  VOLUME TIMESERIES *               
Zone4            2160min   >30yr  VOLUME TIMESERIES *               
Zone4            2880min   <30yr  VOLUME TIMESERIES *               
Zone4            2880min   >30yr  VOLUME TIMESERIES *               
Zone4            4320min   <30yr  VOLUME TIMESERIES *               
Zone4            4320min   >30yr  VOLUME TIMESERIES *               
Zone5            10min     <30yr  VOLUME TIMESERIES *               
Zone5            10min     >30yr  VOLUME TIMESERIES *               
Zone5            15min     <30yr  VOLUME TIMESERIES *               
Zone5            15min     >30yr  VOLUME TIMESERIES *               
Zone5            20min     <30yr  VOLUME TIMESERIES *               
Zone5            20min     >30yr  VOLUME TIMESERIES *               
Zone5            25min     <30yr  VOLUME TIMESERIES *               
Zone5            25min     >30yr  VOLUME TIMESERIES *               
Zone5            30min     <30yr  VOLUME TIMESERIES *               
Zone5            30min     >30yr  VOLUME TIMESERIES *               
Zone5            45min     <30yr  VOLUME TIMESERIES *               
Zone5            45min     >30yr  VOLUME TIMESERIES *               
Zone5            60min     <30yr  VOLUME TIMESERIES *               
Zone5            60min     >30yr  VOLUME TIMESERIES *               
Zone5            90min     <30yr  VOLUME TIMESERIES *               
Zone5            90min     >30yr  VOLUME TIMESERIES *               
Zone5            120min    <30yr  VOLUME TIMESERIES *               
Zone5            120min    >30yr  VOLUME TIMESERIES *               
Zone5            180min    <30yr  VOLUME TIMESERIES *               
Zone5            180min    >30yr  VOLUME TIMESERIES *               
Zone5            270min    <30yr  VOLUME TIMESERIES *               
Zone5            270min    >30yr  VOLUME TIMESERIES *               
Zone5            360min    <30yr  VOLUME TIMESERIES *               
Zone5            360min    >30yr  VOLUME TIMESERIES *               
Zone5            540min    <30yr  VOLUME TIMESERIES *               
Zone5            540min    >30yr  VOLUME TIMESERIES *               
Zone5            720min    <30yr  VOLUME TIMESERIES *               
Zone5            720min    >30yr  VOLUME TIMESERIES *               
Zone5            1080min   <30yr  VOLUME TIMESERIES *               
Zone5            1080min   >30yr  VOLUME TIMESERIES *               
Zone5            1440min   <30yr  VOLUME TIMESERIES *               
Zone5            1440min   >30yr  VOLUME TIMESERIES *               
Zone5            1800min   <30yr  VOLUME TIMESERIES *               
Zone5            1800min   >30yr  VOLUME TIMESERIES *               
Zone5            2160min   <30yr  VOLUME TIMESERIES *               
Zone5            2160min   >30yr  VOLUME TIMESERIES *               
Zone5            2880min   <30yr  VOLUME TIMESERIES *               
Zone5            2880min   >30yr  VOLUME TIMESERIES *               
Zone5            4320min   <30yr  VOLUME TIMESERIES *               
Zone5            4320min   >30yr  VOLUME TIMESERIES *               
Zone6            10min     <30yr  VOLUME TIMESERIES *               
Zone6            10min     >30yr  VOLUME TIMESERIES *               
Zone6            15min     <30yr  VOLUME TIMESERIES *               
Zone6            15min     >30yr  VOLUME TIMESERIES *               
Zone6            20min     <30yr  VOLUME TIMESERIES *               
Zone6            20min     >30yr  VOLUME TIMESERIES *               
Zone6            25min     <30yr  VOLUME TIMESERIES *               
Zone6            25min     >30yr  VOLUME TIMESERIES *               
Zone6            30min     <30yr  VOLUME TIMESERIES *               
Zone6            30min     >30yr  VOLUME TIMESERIES *               
Zone6            45min     <30yr  VOLUME TIMESERIES *               
Zone6            45min     >30yr  VOLUME TIMESERIES *               
Zone6            60min     <30yr  VOLUME TIMESERIES *               
Zone6            60min     >30yr  VOLUME TIMESERIES *               
Zone6            90min     <30yr  VOLUME TIMESERIES *               
Zone6            90min     >30yr  VOLUME TIMESERIES *               
Zone6            120min    <30yr  VOLUME TIMESERIES *               
Zone6            120min    >30yr  VOLUME TIMESERIES *               
Zone6            180min    <30yr  VOLUME TIMESERIES *               
Zone6            180min    >30yr  VOLUME TIMESERIES *               
Zone6            270min    <30yr  VOLUME TIMESERIES *               
Zone6            270min    >30yr  VOLUME TIMESERIES *               
Zone6            360min    <30yr  VOLUME TIMESERIES *               
Zone6            360min    >30yr  VOLUME TIMESERIES *               
Zone6            540min    <30yr  VOLUME TIMESERIES *               
Zone6            540min    >30yr  VOLUME TIMESERIES *               
Zone6            720min    <30yr  VOLUME TIMESERIES *               
Zone6            720min    >30yr  VOLUME TIMESERIES *               
Zone6            1080min   <30yr  VOLUME TIMESERIES *               
Zone6            1080min   >30yr  VOLUME TIMESERIES *               
Zone6            1440min   <30yr  VOLUME TIMESERIES *               
Zone6            1440min   >30yr  VOLUME TIMESERIES *               
Zone6            1800min   <30yr  VOLUME TIMESERIES *               
Zone6            1800min   >30yr  VOLUME TIMESERIES *               
Zone6            2160min   <30yr  VOLUME TIMESERIES *               
Zone6            2160min   >30yr  VOLUME TIMESERIES *               
Zone6            2880min   <30yr  VOLUME TIMESERIES *               
Zone6            2880min   >30yr  VOLUME TIMESERIES *               
Zone6            4320min   <30yr  VOLUME TIMESERIES *               
Zone6            4320min   >30yr  VOLUME TIMESERIES *               
Zone7            10min     <30yr  VOLUME TIMESERIES *               
Zone7            10min     >30yr  VOLUME TIMESERIES *               
Zone7            15min     <30yr  VOLUME TIMESERIES *               
Zone7            15min     >30yr  VOLUME TIMESERIES *               
Zone7            20min     <30yr  VOLUME TIMESERIES *               
Zone7            20min     >30yr  VOLUME TIMESERIES *               
Zone7            25min     <30yr  VOLUME TIMESERIES *               
Zone7            25min     >30yr  VOLUME TIMESERIES *               
Zone7            30min     <30yr  VOLUME TIMESERIES *               
Zone7            30min     >30yr  VOLUME TIMESERIES *               
Zone7            45min     <30yr  VOLUME TIMESERIES *               
Zone7            45min     >30yr  VOLUME TIMESERIES *               
Zone7            60min     <30yr  VOLUME TIMESERIES *               
Zone7            60min     >30yr  VOLUME TIMESERIES *               
Zone7            90min     <30yr  VOLUME TIMESERIES *               
Zone7            90min     >30yr  VOLUME TIMESERIES *               
Zone7            120min    <30yr  VOLUME TIMESERIES *               
Zone7            120min    >30yr  VOLUME TIMESERIES *               
Zone7            180min    <30yr  VOLUME TIMESERIES *               
Zone7            180min    >30yr  VOLUME TIMESERIES *               
Zone7            270min    <30yr  VOLUME TIMESERIES *               
Zone7            270min    >30yr  VOLUME TIMESERIES *               
Zone7            360min    <30yr  VOLUME TIMESERIES *               
Zone7            360min    >30yr  VOLUME TIMESERIES *               
Zone7            540min    <30yr  VOLUME TIMESERIES *               
Zone7            540min    >30yr  VOLUME TIMESERIES *               
Zone7            720min    <30yr  VOLUME TIMESERIES *               
Zone7            720min    >30yr  VOLUME TIMESERIES *               
Zone7            1080min   <30yr  VOLUME TIMESERIES *               
Zone7            1080min   >30yr  VOLUME TIMESERIES *               
Zone7            1440min   <30yr  VOLUME TIMESERIES *               
Zone7            1440min   >30yr  VOLUME TIMESERIES *               
Zone7            1800min   <30yr  VOLUME TIMESERIES *               
Zone7            1800min   >30yr  VOLUME TIMESERIES *               
Zone7            2160min   <30yr  VOLUME TIMESERIES *               
Zone7            2160min   >30yr  VOLUME TIMESERIES *               
Zone7            2880min   <30yr  VOLUME TIMESERIES *               
Zone7            2880min   >30yr  VOLUME TIMESERIES *               
Zone7            4320min   <30yr  VOLUME TIMESERIES *               
Zone7            4320min   >30yr  VOLUME TIMESERIES *               
Zone8            10min     <30yr  VOLUME TIMESERIES *               
Zone8            10min     >30yr  VOLUME TIMESERIES *               
Zone8            15min     <30yr  VOLUME TIMESERIES *               
Zone8            15min     >30yr  VOLUME TIMESERIES *               
Zone8            20min     <30yr  VOLUME TIMESERIES *               
Zone8            20min     >30yr  VOLUME TIMESERIES *               
Zone8            25min     <30yr  VOLUME TIMESERIES *               
Zone8            25min     >30yr  VOLUME TIMESERIES *               
Zone8            30min     <30yr  VOLUME TIMESERIES *               
Zone8            30min     >30yr  VOLUME TIMESERIES *               
Zone8            45min     <30yr  VOLUME TIMESERIES *               
Zone8            45min     >30yr  VOLUME TIMESERIES *               
Zone8            60min     <30yr  VOLUME TIMESERIES *               
Zone8            60min     >30yr  VOLUME TIMESERIES *               
Zone8            90min     <30yr  VOLUME TIMESERIES *               
Zone8            90min     >30yr  VOLUME TIMESERIES *               
Zone8            120min    <30yr  VOLUME TIMESERIES *               
Zone8            120min    >30yr  VOLUME TIMESERIES *               
Zone8            180min    <30yr  VOLUME TIMESERIES *               
Zone8            180min    >30yr  VOLUME TIMESERIES *               
Zone8            270min    <30yr  VOLUME TIMESERIES *               
Zone8            270min    >30yr  VOLUME TIMESERIES *               
Zone8            360min    <30yr  VOLUME TIMESERIES *               
Zone8            360min    >30yr  VOLUME TIMESERIES *               
Zone8            540min    <30yr  VOLUME TIMESERIES *               
Zone8            540min    >30yr  VOLUME TIMESERIES *               
Zone8            720min    <30yr  VOLUME TIMESERIES *               
Zone8            720min    >30yr  VOLUME TIMESERIES *               
Zone8            1080min   <30yr  VOLUME TIMESERIES *               
Zone8            1080min   >30yr  VOLUME TIMESERIES *               
Zone8            1440min   <30yr  VOLUME TIMESERIES *               
Zone8            1440min   >30yr  VOLUME TIMESERIES *               
Zone8            1800min   <30yr  VOLUME TIMESERIES *               
Zone8            1800min   >30yr  VOLUME TIMESERIES *               
Zone8            2160min   <30yr  VOLUME TIMESERIES *               
Zone8            2160min   >30yr  VOLUME TIMESERIES *               
Zone8            2880min   <30yr  VOLUME TIMESERIES *               
Zone8            2880min   >30yr  VOLUME TIMESERIES *               
Zone8            4320min   <30yr  VOLUME TIMESERIES *               
Zone8            4320min   >30yr  VOLUME TIMESERIES *               
Zone1            120min    <30yr  INTENSITY TIMESERIES *               
Zone1            120min    >30yr  INTENSITY TIMESERIES *               
SCS              TypeII    FLMod  CUMULATIVE00:06 TIMESERIES *               
SCS              Type      B      24hr.2 TIMESERIES *               
SCS              Type      B      6hr.2  TIMESERIES *               
SCS              Type      II.2   CUMULATIVE00:06 TIMESERIES *               
SCS              Type      IA.2   CUMULATIVE00:06 TIMESERIES *               
SCS              Type      III.2  CUMULATIVE00:06 TIMESERIES *               
SCS              Type      II     48     TIMESERIES *               
SCS              Spillway  Design.2 CUMULATIVE00:01 TIMESERIES *               
SCS              Type      I      VOLUME TIMESERIES *               
SCS              Type      II.3   CUMULATIVE00:30 TIMESERIES *               
SCS              Type      II     Mod.   TIMESERIES *               
Chicago          Storm     INTENSITY 24:00  TIMESERIES *               
Huff-1Q-10to50sqmi CUMULATIVE06:00 1.0    TIMESERIES TIMESERIES *               
Huff-1Q-Point    CUMULATIVE06:00 1.0    TIMESERIES TIMESERIES *               
Huff-2Q-10to50sqm CUMULATIVE06:00 1.0    TIMESERIES TIMESERIES *               
Huff-2Q-Point    CUMULATIVE06:00 1.0    TIMESERIES TIMESERIES *               
Huff-3Q-10to50sqm CUMULATIVE06:00 1.0    TIMESERIES TIMESERIES *               
Huff-3Q-Point    CUMULATIVE06:00 1.0    TIMESERIES TIMESERIES *               
Huff-4Q-10to50sqm CUMULATIVE06:00 1.0    TIMESERIES TIMESERIES *               
Huff-4Q-Point    CUMULATIVE06:00 1.0    TIMESERIES TIMESERIES *               
Sth              Afr       -      SCS    TIMESERIES *               
Sth              Afr       -      SCS    TIMESERIES *               
Sth              Afr       -      SCS    TIMESERIES *               
Sth              Afr       -      SCS    TIMESERIES *               
Sth              Afr       -      HRU-   TIMESERIES *               
Sth              Afr       -      HRU-   TIMESERIES *               
Sth              Afr       -      HRU-   TIMESERIES *               
Sth              Afr       -      HRU-   TIMESERIES *               
Sth              Afr       -      HRU-   TIMESERIES *               
Sth              Afr       -      HRU-   TIMESERIES *               
Sth              Afr       -      HRU-   TIMESERIES *               
Sth              Afr       -      HRU-   TIMESERIES *               
Sth              Afr       -      HRU-   TIMESERIES *               
Sth              Afr       -      HRU-10hr TIMESERIES *               
Sth              Afr       -      HRU-11hr TIMESERIES *               
Sth              Afr       -      HRU-12hr TIMESERIES *               
Sth              Afr       -      HRU-13hr TIMESERIES *               
Sth              Afr       -      HRU-14hr TIMESERIES *               
Sth              Afr       -      HRU-15hr TIMESERIES *               
Sth              Afr       -      HRU-16hr TIMESERIES *               
Sth              Afr       -      HRU-17hr TIMESERIES *               
Sth              Afr       -      HRU-18hr TIMESERIES *               
Sth              Afr       -      HRU-19hr TIMESERIES *               
Sth              Afr       -      HRU-20hr TIMESERIES *               
Sth              Afr       -      HRU-21hr TIMESERIES *               
Sth              Afr       -      HRU-22hr TIMESERIES *               
Sth              Afr       -      HRU-23hr TIMESERIES *               
Sth              Afr       -      HRU-24hr TIMESERIES *               
SCS              Type      III.3  CUMULATIVE00:06 TIMESERIES *               
storm            INTENSITY 01:00  1.0    TIMESERIES RN#388          
Stayton          11/15/06  CUMULATIVE00:15 1.0    TIMESERIES RN#390          
Statyton         11/22/06  CUMULATIVE00:15 1.0    TIMESERIES RN#0            
Stayton          11/21/06  CUMULATIVE00:15 1.0    TIMESERIES RN#389          
Jan26-28         CUMULATIVE44:00 1.0    TIMESERIES TIMESERIES *               
Mar7-14_06       CUMULATIVE164:00 1.0    TIMESERIES TIMESERIES *               
Jan24-Feb21      CUMULATIVE674:45 1.0    TIMESERIES TIMESERIES *               
1_24-2_21        CUMULATIVE285:15 1.0    TIMESERIES TIMESERIES *               
Jan9-Jan24       CUMULATIVE356:45 1.0    TIMESERIES TIMESERIES *               
Jan24-31A        CUMULATIVE191:30 1.0    TIMESERIES TIMESERIES *               
Jan24-31B        CUMULATIVE164:00 1.0    TIMESERIES TIMESERIES *               
Jan11-13         CUMULATIVE53:00 1.0    TIMESERIES TIMESERIES *               
Jan18-24         CUMULATIVE147:30 1.0    TIMESERIES TIMESERIES *               
Nov14-30         CUMULATIVE385:00 1.0    TIMESERIES TIMESERIES *               
Nov30-Dec14      CUMULATIVE357:00 1.0    TIMESERIES TIMESERIES *               
SCS              IA.2yr    CUMULATIVE24:00 1.0    TIMESERIES RN#402          
SCS              IA.5yr    CUMULATIVE24:00 1.0    TIMESERIES RN#403          
SCS              IA.10yr   CUMULATIVE24:00 1.0    TIMESERIES RN#404          
SCS              IA.25yr   CUMULATIVE24:00 1.0    TIMESERIES RN#405          
SCS              IA.50yr   CUMULATIVE24:00 1.0    TIMESERIES RN#406          

[SUBCATCHMENTS]
;;                                                 Total    Pcnt.             Pcnt.    Curb     Snow    
;;Name           Raingage         Outlet           Area     Imperv   Width    Slope    Length   Pack    
;;-------------- ---------------- ---------------- -------- -------- -------- -------- -------- --------