; SWMM5 export of network usgs_runoff! from InfoWorks 10.0.3.18025
; Entire Network
[TITLE]
Imported from SWMM5 text file on 8/15/2009 10:56:20 AM by Robert E Dickinson
SWMM: D:\swmm_crada_files\usgs_runoff.inp
LUD: C:\Program Files\InfoWorks100\DEFAULT.LUD
  Default land use definitions for HydroWorks(tm) PM+
RPF: C:\Program Files\InfoWorks100\DEFAULT.RPF
  Default Runoff Parameters File for HydroWorks v2.2 and later
SIM: C:\Program Files\InfoWorks100\DEFAULT.SIM
  Default simulation parameters for HydroWorks(tm) SIM
QSM: C:\Program Files\InfoWorks100\DEFAULT.QSM
  Default parameters for HydroWorks(tm) QM
[OPTIONS]
FLOW_UNITS MGD
INFILTRATION GREEN_AMPT
ALLOW_PONDING NO
[SUBCATCHMENTS]
; Name Raingage Outlet Area %Imperv Width Slope Clength
; Only numeric rainfall profiles are supported: GAGE1 set to -1
CA-1 -1 P001 4.999000 39.000000 600.000000 270.000000 0.000000
; Only numeric rainfall profiles are supported: GAGE1 set to -1
CA-11 -1 P011 3.580000 47.000000 600.000000 270.000000 0.000000
; Only numeric rainfall profiles are supported: GAGE1 set to -1
CA-7 -1 P005 1.599000 48.600000 200.000000 270.000000 0.000000
; Only numeric rainfall profiles are supported: GAGE1 set to -1
CA-8 -1 P009 4.565000 46.700000 500.000000 270.000000 0.000000
[SUBAREAS]
; Subcatch Imperv_N Perv_N Imperv_S Perv_S PctZero RouteTo
CA-1 0.015000 0.410000 0.045000 0.200000 25.000000 OUTLET
CA-11 0.015000 0.410000 0.045000 0.200000 25.000000 OUTLET
CA-7 0.015000 0.410000 0.045000 0.200000 25.000000 OUTLET
CA-8 0.015000 0.410000 0.045000 0.200000 25.000000 OUTLET
[INFILTRATION]
; Subcatch MaxRate MinRate DecayRate DryTime MaxInfil
; Subcatch Suction Conduct InitDef
; Subcatch CurveNo Conduct DryTime
CA-1 5.000000 0.300000 0.060000
CA-11 5.000000 0.300000 0.060000
CA-7 5.000000 0.300000 0.060000
CA-8 5.000000 0.300000 0.060000
[JUNCTIONS]
; Name Elev ( Ymax Y0 Ysur Apond )
P001 1.100000 20.000000 0.000000 0.000000 217756.439871
P009 3.600000 20.000000 0.000000 0.000000 198851.399882
P011 2.890000 20.000000 0.000000 0.000000 155944.799908
[OUTFALLS]
; Name InvertEl FREE FlapGate
; Name InvertEl NORMAL FlapGate
; Name InvertEl FIXED FixedStage FlapGate
; Name InvertEl TIDAL TideTable FlapGate
; Name InvertEl TIMESERIES StageSeries FlapGate
Outlet 0.000000 FREE NO
[STORAGE]
; Name InvertEl MaxDepth InitDepth TABULAR Atable
P005 1.580000 20.000000 0.000000 TABULAR P005
[CONDUITS]
; Name Node1 Node2 Length Nvalue Zup Zdown InitFlow
P001.1 P001 Outlet 220.000000 0.015000 0.000000 0.000000 0.000000
P005.1 P005 P001 240.000000 0.015000 0.000000 0.000000 0.000000
P009.1 P009 P005 505.000000 0.024000 0.000000 0.000000 0.000000
P011.1 P011 P005 655.000000 0.024000 0.000000 0.000000 0.000000
[PUMPS]
; Name Node1 Node2 CurveName ( InitStatus )
[ORIFICES]
; Name Node1 Node2 Type Height Cd ( Flap Orate )
[WEIRS]
; Name Node1 Node2 Type Height Cd ( FlapGate EC Cd2 )
[OUTLETS]
; Name Node1 Node2 Height TABULAR Qtable ( FlapGate ) 
[XSECTIONS]
; Link Shape Geom1 Geom2 Geom3 Geom4
; Link IRREGULAR Transect
P001.1 CIRCULAR 4.000000 0.000000 0.000000 0.000000
P005.1 CIRCULAR 3.000000 0.000000 0.000000 0.000000
P009.1 CIRCULAR 2.250000 0.000000 0.000000 0.000000
P011.1 CIRCULAR 2.500000 0.000000 0.000000 0.000000
[LOSSES]
; Conduit EntryLoss ExitLoss AgvLoss ( FlapGate )
P001.1 0.000000 0.000000 0.000000 NO
P005.1 0.000000 0.000000 0.000000 NO
P009.1 0.000000 0.000000 0.000000 NO
P011.1 0.000000 0.000000 0.000000 NO
[TRANSECTS]
; NC Nleft Nright Nchannel
; X1 Name Nsta Xleft Xright 0 0 0 Wfactor Eoffset
; GR Station Elevation ...
[CONTROLS]
[DWF]
; Node Item Value (Pat1 Pat2 Pat3 Pat4)
[CURVE]
P005 STORAGE 0.000000 1000.000000
P005         1.333333 1000.000000
P005         2.666667 1000.000000
P005         4.000000 1000.000000
P005         5.333333 1000.000000
P005         6.666667 1000.000000
P005         8.000000 1000.000000
P005         9.333333 1000.000000
P005         10.666667 1000.000000
P005         12.000000 1000.000000
P005         13.333333 1000.000000
P005         14.666667 1000.000000
P005         16.000000 1000.000000
P005         17.333333 1000.000000
P005         18.666667 1000.000000
P005         20.000000 1000.000000
[COORDINATES]
; Node XCoord YCoord
Outlet -8.449000 111.653000
P001 147.531000 119.924000
P005 198.227000 200.920000
P009 281.276000 352.903000
P011 400.000000 400.000000
[VERTICES]
; Link XCoord YCoord
[POLYGONS]
; Subcatch XCoord YCoord
CA-1 177.819000 368.074000
CA-1 60.088000 485.805000
CA-1 -57.644000 368.074000
CA-1 60.088000 250.342000
CA-1 177.819000 368.074000
CA-11 704.673000 341.828000
CA-11 586.941000 459.560000
CA-11 469.210000 341.828000
CA-11 586.941000 224.097000
CA-11 704.673000 341.828000
CA-7 549.360000 159.719000
CA-7 431.629000 277.451000
CA-7 313.897000 159.719000
CA-7 431.629000 41.988000
CA-7 549.360000 159.719000
CA-8 350.139000 516.163000
CA-8 232.408000 633.895000
CA-8 114.677000 516.163000
CA-8 232.408000 398.432000
CA-8 350.139000 516.163000
[RDII]
; Node UHGroup SewerArea
[HYDROGRAPHS]
; Name Raingage
; Name Month R1 T1 K1 R2 T2 K2 R3 T3 K3
