[TITLE]
Scenario Run :  BASE
2012 East Cambridge Existing Conditions with Phase 1 western separated

Pruned Model similar to CDM's but with all East Cambridge system (need level file

for North Charles Relief sewer outfall at MAss Ave)

Ground outfalls and 24-inch storage pipes in place and adjacent manholes as sealed

Need to run with RTC that includes CAM017 BW

Added Somerville Ave SD with Somerville Ave corridor as catchment and sibtracted to

old catchments along SOM_Ave

Updated SOM009 and SOM001 per East Cambridge 2012 existing conditions model


[OPTIONS]
;Option and Files Scenario Set: BASE, Base Simulation Options
FLOW_UNITS	MGD
INFILTRATION	HORTON
FLOW_ROUTING	DYNWAVE
ALLOW_PONDING	YES
DRY_DAYS	0.000000
SKIP_STEADY_STATE 	NO
IGNORE_RAINFALL	NO
IGNORE_SNOWMELT	NO
IGNORE_GROUNDWATER	NO
IGNORE_QUALITY	NO
FORCE_MAIN_EQUATION	H-W
LINK_OFFSETS	DEPTH
MIN_SLOPE	0.000000
START_DATE	03/21/2014
START_TIME	00:00:00
END_DATE	03/22/2014
END_TIME	00:00:00
REPORT_START_DATE	03/21/2014
REPORT_START_TIME	00:00:00
SWEEP_START	01/01
SWEEP_END	12/31
WET_STEP	00:05:00
DRY_STEP	01:00:00
ROUTING_STEP	30.000000
REPORT_STEP	00:15:00
INERTIAL_DAMPING	PARTIAL
VARIABLE_STEP	0.750000
LENGTHENING_STEP	0
MIN_SURFAREA	0.000000
NORMAL_FLOW_LIMITED	BOTH

[FILES]

[RAINGAGES]

[HYDROGRAPHS]

[EVAPORATION]
CONSTANT	0.000000
DRY_ONLY	NO

[TEMPERATURE]

[SUBCATCHMENTS]
S1008755	1	1008755	7.504147	82.300000	322.566794	0.000000	0.000000
S100_BINNEY	1	ALSD-6	0.958001	92.960000	115.252960	0.000000	0.000000
S10400	1	CT10725	14.150022	60.000000	300.000000	1.000000	0.000000
S10401	1	CT10661	15.380024	75.000000	4380.000000	0.500000	0.000000
S10402	1	CT10687	19.440030	65.000000	2000.000000	0.500000	0.000000
S10403	1	CT10711	20.940032	70.000000	1620.000000	1.000000	0.000000
S10404	1	CT10651	4.240007	75.000000	1360.000000	1.000000	0.000000
S10406	1	CT10635	9.640015	75.000000	4800.000000	1.000000	0.000000
S10407	1	CT106331	86.400133	100.000000	6000.000000	1.000000	0.000000
S10408	1	CT106331	130.000201	100.000000	8000.000000	1.000000	0.000000
S10409	1	1005727	6.040009	50.000000	700.000000	0.500000	0.000000
S10411	1	CT10689	10.850017	65.000000	1100.000000	0.500000	0.000000
S125_BINNEY!	1	ALSD-6	1.650168	99.940006	151.255546	0.000000	0.000000
S125_BINNEY-EAST	1	D07DMH1225	2.209463	60.000000	175.029968	0.107583	0.000000
S125_BINNEY_W	1	934093	4.108755	71.000000	238.684437	0.371326	0.000000
S161_FIRST	1	ALSD_5	0.625001	94.630000	93.091353	0.181062	0.000000
S225_BINNEY	1	935022	2.349566	82.800000	180.494010	0.015354	0.000000
S300_BINNEY_ST	1	935021	2.024646	86.000000	167.549646	0.027293	0.000000
S303_THIRD_ST	1	INTOWN2	2.173523	72.277228	172.739027	0.115091	0.000000
S50_BINNEY	1	ALSD_5	1.015002	95.470000	118.632137	0.181062	0.000000
S6001	3	SM6005	44.850069	40.000000	1272.800000	0.100000	0.000000
S6002	3	SM6007	41.210064	40.000000	1414.200000	0.100000	0.000000
S6003	3	SM6009	31.740049	40.000000	1555.600000	0.100000	0.000000
S6004	3	SM6013	20.950032	40.000000	2121.300000	0.100000	0.000000
S6005	3	SM6003	10.810017	40.000000	848.500000	0.100000	0.000000
S6006	3	SM6123	24.080037	20.000000	1979.900000	0.100000	0.000000
S6007	3	SM6015	23.110036	40.000000	1272.800000	0.100000	0.000000
S6008	3	SM6019	10.500016	20.000000	636.396000	0.100000	0.000000
S6009	3	SM6019	23.550036	20.000000	1237.437000	0.100000	0.000000
S6010	3	SM6193	10.400016	20.000000	707.107000	0.100000	0.000000
S6011	3	SM6123	6.360010	20.000000	388.900000	0.100000	0.000000
S6012	3	SM6119	8.940014	20.000000	1131.400000	0.100000	0.000000
S6013	3	SM6117	15.250024	20.000000	1555.600000	0.100000	0.000000
S6014	3	SM6023	36.219956	13.307326	2757.716000	0.100000	0.000000
S6015	3	SM6063	15.440024	20.000000	989.949000	0.100000	0.000000
S6016	3	SM6029	6.930239	13.307326	424.264000	0.100000	0.000000
S6017	3	SM6023	43.371667	13.307326	2474.874000	0.100000	0.000000
S6018	3	SM6031	4.530955	13.307326	1484.924000	0.100000	0.000000
S6019	3	SM6065	11.914618	2.439024	1131.371000	0.100000	0.000000
S6020	3	SM6113	20.940032	20.000000	1442.500000	0.100000	0.000000
S6021	3	SM6113	29.590046	20.000000	1202.100000	0.100000	0.000000
S6022	3	SM6033	7.963776	13.307326	1343.503000	0.100000	0.000000
S6023	3	SM6067	70.539025	16.562370	2333.452000	0.100000	0.000000
S6024	1	SM6035	21.140033	20.000000	1131.371000	0.100000	0.000000
S6026	1	SM6071	17.020026	20.000000	1414.214000	0.100000	0.000000
S6027	1	SM6205	12.440019	20.000000	989.949000	0.100000	0.000000
S6028	1	SM6037	8.920014	20.000000	530.330000	0.100000	0.000000
S6029	1	SM6211	7.010011	20.000000	989.949000	0.100000	0.000000
S6030	1	SM6041	40.000062	20.000000	1767.767000	0.100000	0.000000
S6031	1	SM6075	30.048046	0.000000	848.528000	0.100000	0.000000
S6037	3	1001555	73.120113	2.000000	3500.000000	0.300000	0.000000
S6038	1	SM6321	3.795006	40.000000	742.462500	2.000000	0.000000
S6039	1	SM6325	14.120022	5.000000	1456.692913	0.100000	0.000000
S6041	1	SM6223	27.970043	20.000000	1555.635000	0.100000	0.000000
S6042	1	SM6045	114.470177	20.000000	5374.012000	0.100000	0.000000
S6043	1	SM6045	17.140026	20.000000	1697.056000	0.100000	0.000000
S6044	1	SM6039	14.920023	20.000000	1590.990000	0.100000	0.000000
S6045	1	SM6047	101.630157	20.000000	4666.905000	0.100000	0.000000
S6046	1	SM6223	8.610013	20.000000	473.762000	0.100000	0.000000
S6047	1	SM6227	11.570018	20.000000	1767.767000	0.100000	0.000000
S6050	1	1001075	20.116831	100.000000	142.102000	0.300000	0.000000
S6051	1	SM6273	7.210011	95.000000	77.140000	0.200000	0.000000
S6052	1	SM6227	4.990008	20.000000	1060.660000	0.100000	0.000000
S6053	1	SM6263	11.070017	20.000000	989.949000	0.100000	0.000000
S6054	1	SM6263	5.030008	20.000000	735.391000	0.100000	0.000000
S6055	1	SM6267	8.250013	20.000000	749.533000	0.100000	0.000000
S6056	1	SM6049	8.680013	20.000000	579.828000	0.100000	0.000000
S6057	1	SM6243	10.840017	20.000000	919.239000	0.100000	0.000000
S6058	1	SM6243	2.510004	20.000000	141.421000	0.100000	0.000000
S6060	1	SM6051	12.960020	40.000000	1202.082000	0.100000	0.000000
S6061	1	SM6051	7.230011	40.000000	565.685000	0.100000	0.000000
S6062	1	SM6273	11.700018	95.000000	125.178000	0.200000	0.000000
S6063	1	1001075	9.813615	100.000000	69.322000	0.300000	0.000000
S6064	1	1001583	21.920034	2.000000	2200.000000	0.300000	0.000000
S6065	3	SM6025	8.554369	13.307326	905.097000	0.100000	0.000000
S6104	3	SM6601	31.170048	40.000000	1979.899000	0.100000	0.000000
S6106	3	SM6147	17.440027	40.000000	1131.400000	0.100000	0.000000
S6107	3	SM6145	8.150013	40.000000	1131.400000	0.100000	0.000000
S6108	3	SM6145	22.870035	40.000000	3535.500000	0.100000	0.000000
S6109	3	SM6175	5.290008	40.000000	919.200000	0.100000	0.000000
S610_MAINST	1	935040	3.523594	61.200000	221.035458	0.470344	0.000000
S6110	3	SM6143	17.450027	40.000000	2404.200000	0.100000	0.000000
S6111	3	SM6137	19.090029	40.000000	1909.200000	0.100000	0.000000
S6112	3	SM6133	10.570016	40.000000	1838.500000	0.100000	0.000000
S6113	3	SM6133	28.900045	40.000000	1555.600000	0.100000	0.000000
S6115	1	1001075	5.461208	100.000000	38.577000	0.300000	0.000000
S6118	1	SM6381	4.642007	40.000000	1909.448819	2.000000	0.000000
S6119	1	SM6391	1.639003	40.000000	2185.039370	2.000000	0.000000
S6120	1	SM6393	3.767506	40.000000	2928.149606	2.000000	0.000000
S6121	1	SM_WEIR2	31.790049	30.000000	890.955000	0.100000	0.000000
S6122	1	SM_WEIR2	10.410016	30.000000	1909.188000	0.100000	0.000000
S6123	1	SM6383	26.394541	40.000000	1962.222000	2.000000	0.000000
S6124	3	SM6315E	47.490073	45.000000	1385.929000	0.100000	0.000000
S6125	1	1001583	70.920109	2.000000	2276.884000	0.100000	0.000000
S6126	1	SM6041	11.910018	20.000000	848.528000	0.100000	0.000000
S6127	1	SM6049	24.930038	20.000000	1767.767000	0.100000	0.000000
S6128	1	SM6273	9.130014	95.000000	97.682000	0.200000	0.000000
S6140	3	SM6629	7.630012	10.000000	7.630000	0.200000	0.000000
S6613	3	SM6613	31.170048	7.000000	84.853000	0.100000	0.000000
S6617	3	SM6617	6.500010	7.000000	42.426000	0.100000	0.000000
S6641	3	SM6641	12.070019	7.000000	84.853000	0.100000	0.000000
S6643	3	SM6643	11.110017	7.000000	63.640000	0.100000	0.000000
S7007	2	1007023	15.580024	7.000000	127.279000	0.100000	0.000000
S7021	2	1006947	10.310016	7.000000	63.640000	0.100000	0.000000
S7023	3	1006915	16.630026	7.000000	116.673000	0.100000	0.000000
S70231	3	SM70231	64.980100	10.000000	64.980000	0.200000	0.000000
S7037	2	CB7037	130.710202	7.000000	141.421000	0.100000	0.000000
S7045	2	1002103	73.380113	7.000000	254.558000	0.100000	0.000000
S7047	2	1002113	19.620030	7.000000	148.492000	0.100000	0.000000
S70551	2	CB70551	19.650030	5.000000	17.678000	0.100000	0.000000
S70553	2	CB70553	4.500007	45.000000	848.528000	0.100000	0.000000
S7161	2	CB7161	61.790095	7.000000	49.497000	0.100000	0.000000
S7163	2	CB7163	23.940037	7.000000	212.132000	0.100000	0.000000
S7403	2	CB7403	32.900051	17.000000	49.497000	0.100000	0.000000
S7405	2	CB7405	20.740032	17.000000	106.066000	0.100000	0.000000
S7407	2	CB7407	52.210081	17.000000	183.848000	0.100000	0.000000
S7409	2	CB7409	31.230048	17.000000	60.104000	0.100000	0.000000
S7411	2	CB7411	85.970133	17.000000	212.132000	0.100000	0.000000
S7415	2	CB7415	54.930085	17.000000	141.421000	0.100000	0.000000
S7419	3	CB7419	42.520066	17.000000	127.279000	0.100000	0.000000
S7421	3	CB7421	41.790065	17.000000	169.706000	0.100000	0.000000
S7423	2	CB7423	34.190053	17.000000	141.421000	0.100000	0.000000
S7657	3	CB7657	45.850071	30.000000	22.982500	0.200000	0.000000
S8006	1	CB1811	14.470022	15.000000	1100.000000	0.500000	0.000000
S8050	2	CB7553	3.580006	40.000000	424.264000	0.100000	0.000000
S8051	2	CB7103	4.420007	30.000000	2.215500	0.200000	0.000000
S810400	1	CT10725	0.380001	100.000000	260.000000	2.000000	0.000000
S8109	1	CB1819	12.840020	15.000000	3600.000000	0.500000	0.000000
S8110	1	CB1819	17.000026	15.000000	2000.000000	0.500000	0.000000
S8129	3	CB7577	4.520007	35.000000	70.230000	0.200000	0.000000
S8130	3	CB7657	9.580015	30.000000	4.802000	0.200000	0.000000
S8150	2	CB7561	33.270051	40.000000	2404.163000	0.100000	0.000000
S8151	2	CB7553	32.450050	40.000000	2333.452000	0.100000	0.000000
S8152	2	CB7557	7.730012	40.000000	1202.082000	0.100000	0.000000
S8153	2	CB7551	10.950017	40.000000	2121.320000	0.100000	0.000000
S8154	2	CB7151	7.880012	40.000000	848.528000	0.100000	0.000000
S8155	2	CB7565	12.920020	40.000000	707.107000	0.100000	0.000000
S8156	2	CB7561	25.240039	40.000000	2262.742000	0.100000	0.000000
S8157	2	CB7567	39.120060	40.000000	1767.767000	0.100000	0.000000
S8158	2	CB7153	21.350033	40.000000	2050.610000	0.100000	0.000000
S8159	2	CB7155	23.820037	40.000000	3252.691000	0.100000	0.000000
S8160	2	CB7157	94.730146	40.000000	2969.848000	0.100000	0.000000
S8161	2	CB7133	15.900025	30.000000	1767.767000	0.100000	0.000000
S8162	2	CB7137	20.190031	30.000000	2545.584000	0.100000	0.000000
S8163	2	CB7137	26.270041	30.000000	1484.924000	0.100000	0.000000
S8164	2	CB7143	52.330081	35.000000	813.082700	0.200000	0.000000
S8165	2	CB7141	7.490012	35.000000	116.376600	0.200000	0.000000
S8166	2	CB7607	4.750007	35.000000	73.803600	0.200000	0.000000
S8167	2	CB7627	14.750023	18.000000	3300.000000	0.700000	0.000000
S8168	2	CB7627	6.860011	18.000000	1200.000000	0.700000	0.000000
S8169	2	CB7625	50.180077	13.500000	5250.000000	0.700000	0.000000
S8170	2	CB7623	17.360027	13.500000	2700.000000	0.700000	0.000000
S81711	2	CB7631	40.970063	35.000000	636.575500	0.200000	0.000000
S81712	2	CB7635	20.480032	35.000000	318.210100	0.200000	0.000000
S8172	2	CB7129	17.510027	18.000000	3600.000000	0.700000	0.000000
S8173	2	CB7641	19.330030	35.000000	300.341800	0.200000	0.000000
S8174	2	CB7141	8.950014	35.000000	139.061500	0.200000	0.000000
S8175	3	CB7577	10.410016	35.000000	161.746400	0.200000	0.000000
S8176	2	CB7597	7.870012	35.000000	122.280900	0.200000	0.000000
S8177	3	CB7609	38.080059	35.000000	591.671800	0.200000	0.000000
S8178	3	CB7593	10.080016	35.000000	156.619000	0.200000	0.000000
S8179	3	CB7589	8.640013	45.000000	848.528000	0.100000	0.000000
S8180	3	CB7589	6.520010	45.000000	353.553000	0.100000	0.000000
S8181	3	CB7587	9.660015	45.000000	707.107000	0.100000	0.000000
S8182	3	CB7585	6.260010	45.000000	707.107000	0.100000	0.000000
S8183	3	CB7601	11.990019	45.000000	1626.346000	0.100000	0.000000
S8184	2	CB7603	6.960011	45.000000	707.107000	0.100000	0.000000
S8185	2	CB7107	10.680016	45.000000	1484.924000	0.100000	0.000000
S8186	2	CB7109	7.610012	40.000000	989.949000	0.100000	0.000000
S8187	2	CB7121	25.400039	40.000000	1626.346000	0.100000	0.000000
S8197	2	CB7151	6.000009	40.000000	707.107000	0.100000	0.000000
S8199	2	CB7991	7.400011	40.000000	494.975000	0.100000	0.000000
S91000	1	1001359	200.000309	20.000000	200.000000	0.100000	0.000000
S910400	1	CT10749	170.740264	4.700000	17.000000	1.000000	0.000000
S910403	1	CT10711	189.360292	4.700000	17.000000	1.000000	0.000000
S934093	1	934093	1.709480	61.662631	154.639474	0.371326	0.000000
S934093_1	1	934093	1.722411	80.038004	154.546487	0.371326	0.000000
S934093_3	1	934093	2.575910	78.000000	188.988043	0.371326	0.000000
S934093_4	1	934093	1.475810	73.000000	143.048783	0.371326	0.000000
S934097	1	934097	1.707619	85.100000	153.873710	0.081445	0.000000
S934107	1	934107	2.599713	61.070000	189.859234	0.099467	0.000000
S934111	1	934111	0.342628	44.954495	68.928997	1.637536	0.000000
S934125	1	934125	1.045604	53.889334	120.551991	0.000000	0.000000
S934125_1	1	934125	0.562569	71.690000	88.319549	0.000000	0.000000
S934126	1	934126	5.125784	46.164616	266.606594	0.153435	0.000000
S934126_2	1	934126	3.462419	81.818182	220.212124	0.153435	0.000000
S934126_PUBLIC_WAY	1	934126	2.176839	100.000000	173.732931	0.153435	0.000000
S934130_1	1	934130	1.452332	83.838384	142.621300	0.214882	0.000000
S934136	1	934136	1.825852	93.000000	159.111567	0.164195	0.000000
S934139	1	934139	0.917135	100.000000	112.767911	2.044486	0.000000
S934141	1	934141	0.849046	76.000000	108.501247	0.160831	0.000000
S934143	1	934143	0.629908	100.000000	93.456058	0.201005	0.000000
S935040	1	935040	4.206823	90.000000	241.516107	0.470344	0.000000
SAR-001-P1	2	1002191	77.100119	9.000000	0.186490	0.001000	0.000000
SAR-003-P	3	1002201	82.700128	9.000000	0.199950	0.001000	0.000000
SAR-028-P1	2	CB70151	529.000817	17.500000	2.866820	0.200000	0.000000
SAR-028-P2	2	CB70151	24.600038	17.500000	0.133180	0.200000	0.000000
SBINNEY_STREETPUBLIC_WAY	1	934214	2.303512	97.000000	178.716315	0.045239	0.000000
SBINNEY_STSOUTH	1	ALSD_5	1.054550	94.200000	120.921212	0.181062	0.000000
SBM-001-P	2	BMCB1-999	2553.403942	9.000000	47.273160	0.001000	0.000000
SCAM016	1	934075	3.929246	93.410000	233.412219	0.815076	0.000000
SCAM1	1	935006	10.898017	38.114000	480.600000	0.000000	0.000000
SCAM10	1	933049	14.838481	46.941844	634.800000	0.095668	0.000000
SCAM11	1	935015	12.445701	36.434400	476.100000	0.054655	0.000000
SCAM115	1	933075	0.645999	100.000000	636.600000	0.637389	0.000000
SCAM116	1	933163	0.678663	100.000000	750.000000	0.074196	0.000000
SCAM117	1	934215	6.593161	67.400000	279.000000	0.118612	0.000000
SCAM118	1	933120	5.332496	58.965591	221.300000	0.383134	0.000000
SCAM12	1	935012	19.135386	35.465400	538.900000	0.205700	0.000000
SCAM120	1	934228	9.093396	43.200000	891.800000	0.063950	0.000000
SCAM121	1	934073	8.027990	67.800000	315.700000	0.355728	0.000000
SCAM122	1	934127	18.108214	59.200000	568.800000	0.036234	0.000000
SCAM123	1	934123	8.407139	48.572038	387.000000	0.454314	0.000000
SCAM123-PARKLOT7	1	PARKLOT7-CAM123	0.440001	100.000000	387.000000	0.000000	0.000000
SCAM124	1	933286	1.590409	37.667599	309.300000	0.044065	0.000000
SCAM125	1	933275	0.000000	0.000000	0.000000	0.270377	0.000000
SCAM126	1	935018	0.000000	0.000000	0.000000	0.027818	0.000000
SCAM127	1	934991	10.495659	90.500000	84.700000	0.000000	0.000000
SCAM128	1	933241	0.000000	0.000000	0.000000	0.344904	0.000000
SCAM129	1	933160	0.000000	0.000000	0.000000	0.025957	0.000000
SCAM13	1	935023	13.689236	82.800000	792.500000	0.023800	0.000000
SCAM130	1	933336	5.740009	90.000000	282.114417	0.389947	0.000000
SCAM131	1	933324	1.000002	90.000000	117.752283	0.138981	0.000000
SCAM132	1	933339	1.000002	90.000000	117.752283	0.611857	0.000000
SCAM14	1	935003	5.648009	43.605000	354.100000	0.208072	0.000000
SCAM15	1	933009	4.398334	56.842500	255.200000	2.077238	0.000000
SCAM17	1	934039	16.092589	39.270000	911.400000	0.095731	0.000000
SCAM18	1	934006	15.889684	42.322500	402.400000	0.000000	0.000000
SCAM19	1	933067	4.242119	65.126050	359.100000	0.271156	0.000000
SCAM2	1	935005	9.835015	43.346600	405.900000	0.054450	0.000000
SCAM20	1	935020	12.715473	55.200000	705.800000	0.278809	0.000000
SCAM21	1	934052	14.060829	38.307800	766.500000	0.036192	0.000000
SCAM22	1	933058	8.516937	37.437648	447.600000	0.650939	0.000000
SCAM23	1	933034	5.300188	47.850000	426.000000	0.292633	0.000000
SCAM24	1	934045	7.318834	52.300000	444.700000	0.335227	0.000000
SCAM25	1	934062	9.998485	58.900000	501.800000	0.352989	0.000000
SCAM26	1	933076	10.700017	34.520625	535.100000	0.207191	0.000000
SCAM27	1	933091	3.006804	81.726865	196.100000	0.084269	0.000000
SCAM28	1	934118	2.605550	81.055668	347.100000	1.842926	0.000000
SCAM28-PARKLOT5	1	934118	0.320000	100.000000	347.100000	1.842926	0.000000
SCAM29	1	934069	8.131320	38.356602	636.600000	0.493163	0.000000
SCAM29-PARKLOT1	1	934069	2.510004	100.000000	636.600000	0.493163	0.000000
SCAM3	1	935011	15.882025	36.757400	503.100000	0.647371	0.000000
SCAM30	1	934159	7.058842	42.822125	548.100000	0.847666	0.000000
SCAM30-PARKLOT2	1	934159	0.520001	100.000000	548.100000	0.847666	0.000000
SCAM31	1	934087	11.593011	52.046036	603.800000	0.038026	0.000000
SCAM32	1	934104	11.615533	52.046036	489.400000	0.000000	0.000000
SCAM33	1	933288	7.310378	25.517000	369.400000	0.603912	0.000000
SCAM34	1	935000	16.718854	29.974400	518.700000	1.288355	0.000000
SCAM35	1	933003	0.000000	0.000000	0.000000	0.137739	0.000000
SCAM36	1	933007	0.000000	0.000000	0.000000	0.000000	0.000000
SCAM37	1	933240	0.000000	0.000000	0.000000	0.602592	0.000000
SCAM38	1	933140	0.000000	0.000000	0.000000	2.127903	0.000000
SCAM39	1	933021	0.000000	0.000000	0.000000	0.000000	0.000000
SCAM4	1	933025	12.566317	56.000000	391.900000	3.276004	0.000000
SCAM40	1	933232	0.547912	100.000000	1000.000000	0.093439	0.000000
SCAM41	1	933173	0.000000	0.000000	0.000000	1.292659	0.000000
SCAM42	1	933033	0.000000	0.000000	0.000000	1.261289	0.000000
SCAM43	1	933154	0.000000	0.000000	0.000000	0.807099	0.000000
SCAM44	1	933039	0.000000	0.000000	0.000000	0.356502	0.000000
SCAM45	1	933051	0.000000	0.000000	0.000000	1.083665	0.000000
SCAM46	1	933053	0.000000	0.000000	0.000000	0.175927	0.000000
SCAM47	1	933190	0.780137	100.000000	430.000000	0.624480	0.000000
SCAM48	1	933218	0.289893	100.000000	1348.000000	0.184162	0.000000
SCAM49-PROJCT4_1	1	933164	0.253689	100.000000	250.179506	0.708370	0.000000
SCAM49-PROJECT4_2	1	933220	0.041292	100.000000	100.932964	0.222757	0.000000
SCAM49_PORJECT4_3	1	933086	0.100001	100.000000	157.073825	0.830204	0.000000
SCAM49_PROJECT4_4	1	933106	0.260182	100.000000	253.360990	0.176148	0.000000
SCAM49_PROJECT4_5	1	933109	0.279751	100.000000	262.716091	0.410150	0.000000
SCAM5	1	934038	13.901852	37.895975	708.200000	1.356440	0.000000
SCAM50	1	933090	1.492056	100.000000	1000.000000	0.169838	0.000000
SCAM51	1	933146	0.000000	0.000000	0.000000	0.158652	0.000000
SCAM52	1	933228	0.642370	100.000000	1150.000000	0.563913	0.000000
SCAM53	1	933137	0.000000	0.000000	0.000000	0.176300	0.000000
SCAM54	1	1001163	0.000000	0.000000	0.000000	5.625000	0.000000
SCAM55	1	933177	0.000000	0.000000	0.000000	0.178264	0.000000
SCAM56	1	933269	0.000000	0.000000	0.000000	0.089681	0.000000
SCAM57	1	933271	0.000000	0.000000	0.000000	0.212412	0.000000
SCAM58	1	933246	5.303493	100.000000	2600.000000	0.080706	0.000000
SCAM59_NEW	1	933000	0.000000	0.000000	339.719684	0.054181	0.000000
SCAM6	1	933041	11.286755	34.980900	512.800000	1.585459	0.000000
SCAM60	1	933166	24.898503	20.000000	687.000000	0.017672	0.000000
SCAM61	1	933280	0.000000	0.000000	0.000000	0.004854	0.000000
SCAM62	1	933035	0.000000	0.000000	0.000000	0.152086	0.000000
SCAM63	1	935044	3.336005	26.100000	305.300000	2.097483	0.000000
SCAM64	1	933247	0.000000	0.000000	0.000000	1.951006	0.000000
SCAM65	1	933277	0.000000	0.000000	0.000000	0.000000	0.000000
SCAM66	1	933180	0.000000	0.000000	0.000000	0.031795	0.000000
SCAM67	1	934059	11.515390	43.802837	576.800000	0.042522	0.000000
SCAM68	1	1001123	0.000000	0.000000	0.000000	0.450000	0.000000
SCAM69	1	933276	0.000000	0.000000	0.000000	0.034488	0.000000
SCAM7	1	933069	4.659257	60.461637	368.900000	0.959585	0.000000
SCAM70	1	933265	0.000000	0.000000	0.000000	0.135708	0.000000
SCAM73	1	933290	2.815705	96.760000	197.588919	0.138709	0.000000
SCAM74!	1	935031	7.633637	91.171766	453.900000	0.481824	0.000000
SCAM75	1	934025	8.672761	40.892494	396.700000	1.953135	0.000000
SCAM76	1	934008	8.757885	30.420113	377.800000	0.214408	0.000000
SCAM77	1	934032	6.963691	38.303773	442.100000	0.039291	0.000000
SCAM78	1	934112	3.443933	36.615516	438.500000	0.378300	0.000000
SCAM78-PARKLOT6	1	934112	0.840001	100.000000	438.500000	0.378300	0.000000
SCAM79	1	934236	2.742009	34.398977	262.100000	0.522419	0.000000
SCAM79-PARKLOT3	1	934236	0.540001	100.000000	262.100000	0.522419	0.000000
SCAM8	1	934145	3.770090	54.960000	164.900000	0.232846	0.000000
SCAM80	1	934160	2.559959	38.299233	392.400000	1.156993	0.000000
SCAM80-PARKLOT4	1	934160	1.270002	100.000000	392.400000	1.157000	0.000000
SCAM81	1	933238	5.560009	66.880000	367.000000	1.127716	0.000000
SCAM82	1	933119	3.114473	66.320000	220.300000	0.165737	0.000000
SCAM84	1	934224	5.128707	56.640000	438.200000	0.098422	0.000000
SCAM85	1	934210	8.090108	52.415966	632.900000	0.137552	0.000000
SCAM86	1	934031	4.247847	45.340314	351.200000	0.404841	0.000000
SCAM87	1	934213	7.900727	43.246073	438.200000	0.371682	0.000000
SCAM88	1	934053	2.739867	62.356621	232.000000	0.094091	0.000000
SCAM89	1	934212	5.949129	29.791667	579.600000	0.114960	0.000000
SCAM9	1	934024	22.685486	46.282500	656.700000	0.091279	0.000000
SCAM90	1	934041	4.121788	27.737226	421.900000	0.178579	0.000000
SCAM93	1	933248	0.409364	100.000000	700.000000	0.095697	0.000000
SCAM94	1	933260	0.372054	100.000000	730.000000	0.496493	0.000000
SCAM95	1	933250	0.245837	100.000000	320.000000	0.066978	0.000000
SCAM96	1	933249	0.201702	100.000000	740.000000	0.161925	0.000000
SCAM97	1	933257	0.291109	100.000000	400.000000	0.198837	0.000000
SCAMBRIDGESIDE_GALLERIA	1	1008755	7.158477	89.690722	319.884685	0.000000	0.000000
SCAMSD6SAN	1	933052	0.000000	0.000000	117.752283	0.358359	0.000000
SCB-033-P	1	1007271	8.380013	6.500000	308.500000	0.200000	0.000000
SCB-060-P	1	1007281	0.000000	0.000000	353.900000	0.200000	0.000000
SDRYCB1811	1	CB1811	0.000000	0.000000	100.000000	0.100000	0.000000
SDRYCB1819	1	CB1819	0.000000	0.000000	100.000000	0.100000	0.000000
SDRYCB70151	2	CB70151	0.000000	0.000000	100.000000	0.100000	0.000000
SDRYCB7037	2	CB7037	0.000000	0.000000	100.000000	0.100000	0.000000
SDRYCB7045	2	1002103	0.000000	0.000000	100.000000	0.100000	0.000000
SDRYCB7047	2	1002113	0.000000	0.000000	100.000000	0.100000	0.000000
SDRYCB7049	2	1002127	0.000000	0.000000	100.000000	0.100000	0.000000
SDRYCB70551	2	CB70551	0.000000	0.000000	100.000000	0.100000	0.000000
SDRYCB7059	3	1002179	0.000000	0.000000	100.000000	0.100000	0.000000
SDRYCB7103	2	CB7103	0.000000	0.000000	100.000000	0.100000	0.000000
SDRYCB7121	2	CB7121	0.000000	0.000000	100.000000	0.100000	0.000000
SDRYCB7143	2	CB7143	0.000000	0.000000	100.000000	0.100000	0.000000
SDRYCB7147	2	CB7147	0.000000	0.000000	100.000000	0.100000	0.000000
SDRYCB7161	2	CB7161	0.000000	0.000000	100.000000	0.100000	0.000000
SDRYCB7163	2	CB7163	0.000000	0.000000	100.000000	0.100000	0.000000
SDRYCB7403	2	CB7403	0.000000	0.000000	100.000000	0.100000	0.000000
SDRYCB7405	2	CB7405	0.000000	0.000000	100.000000	0.100000	0.000000
SDRYCB7407	2	CB7407	0.000000	0.000000	100.000000	0.100000	0.000000
SDRYCB7409	2	CB7409	0.000000	0.000000	100.000000	0.100000	0.000000
SDRYCB7411	2	CB7411	0.000000	0.000000	100.000000	0.100000	0.000000
SDRYCB7415	2	CB7415	0.000000	0.000000	100.000000	0.100000	0.000000
SDRYCB7419	3	CB7419	0.000000	0.000000	100.000000	0.100000	0.000000
SDRYCB7421	3	CB7421	0.000000	0.000000	100.000000	0.100000	0.000000
SDRYCB7423	2	CB7423	0.000000	0.000000	100.000000	0.100000	0.000000
SDRYCB7553	2	CB7553	0.000000	0.000000	100.000000	0.100000	0.000000
SDRYCB7581	3	CB7581	0.000000	0.000000	100.000000	0.100000	0.000000
SDRYCB7653	3	CB7653	0.000000	0.000000	100.000000	0.100000	0.000000
SDRYCB7655	3	CB7655	0.000000	0.000000	100.000000	0.100000	0.000000
SDRYCB7657	3	CB7657	0.000000	0.000000	100.000000	0.100000	0.000000
SDRYCT10137	1	1001029	0.000000	0.000000	100.000000	0.100000	0.000000
SDRYCT10425	1	1001097	0.000000	0.000000	100.000000	0.100000	0.000000
SDRYCT10439	1	1005727	0.000000	0.000000	100.000000	0.100000	0.000000
SDRYCT10459	1	1001435	0.000000	0.000000	100.000000	0.100000	0.000000
SDRYCT10467	1	1001451	0.000000	0.000000	100.000000	0.100000	0.000000
SDRYCT10487	1	1001481	0.000000	0.000000	100.000000	0.100000	0.000000
SDRYCT10489	1	1001485	0.000000	0.000000	100.000000	0.100000	0.000000
SDRYCT10499	1	1001499	0.000000	0.000000	100.000000	0.100000	0.000000
SDRYCT10537	1	1001391	0.000000	0.000000	100.000000	0.100000	0.000000
SDRYCT10599	1	CT10599	0.000000	0.000000	100.000000	0.100000	0.000000
SDRYCT10605	1	CT10605	0.000000	0.000000	100.000000	0.100000	0.000000
SDRYCT106331	1	CT106331	0.000000	0.000000	100.000000	0.100000	0.000000
SDRYCT10635	1	CT10635	0.000000	0.000000	100.000000	0.100000	0.000000
SDRYCT106351	1	CT106351	0.000000	0.000000	100.000000	0.100000	0.000000
SDRYCT10651	1	CT10651	0.000000	0.000000	100.000000	0.100000	0.000000
SDRYCT10659	1	CT10659	0.000000	0.000000	100.000000	0.100000	0.000000
SDRYCT10661	1	CT10661	0.000000	0.000000	100.000000	0.100000	0.000000
SDRYCT10663	1	CT10663	0.000000	0.000000	100.000000	0.100000	0.000000
SDRYCT10671	1	CT10671	0.000000	0.000000	100.000000	0.100000	0.000000
SDRYCT10697	1	CT10697	0.000000	0.000000	100.000000	0.100000	0.000000
SDRYCT10699	1	CT10699	0.000000	0.000000	100.000000	0.100000	0.000000
SDRYCT10711	1	CT10711	0.000000	0.000000	100.000000	0.100000	0.000000
SDRYCT10725	1	CT10725	0.000000	0.000000	100.000000	0.100000	0.000000
SDRYCT10745	1	CT10745	0.000000	0.000000	100.000000	0.100000	0.000000
SDRYCT10749	1	CT10749	0.000000	0.000000	100.000000	0.100000	0.000000
SDRYSM10559	3	1001533	0.000000	0.000000	100.000000	0.100000	0.000000
SDRYSM10561	3	1001551	0.000000	0.000000	100.000000	0.100000	0.000000
SDRYSM10563	3	1001555	0.000000	0.000000	100.000000	0.100000	0.000000
SDRYSM10565	3	1001559	0.000000	0.000000	100.000000	0.100000	0.000000
SDRYSM10565!	1	1001559	0.000000	0.000000	100.000000	0.100000	0.000000
SDRYSM10571	3	1001575	0.000000	0.000000	100.000000	0.100000	0.000000
SDRYSM10573	1	1001583	0.000000	0.000000	100.000000	0.100000	0.000000
SDRYSM6003	3	SM6003	0.000000	0.000000	100.000000	0.100000	0.000000
SDRYSM6005	3	SM6005	0.000000	0.000000	100.000000	0.100000	0.000000
SDRYSM6007	3	SM6007	0.000000	0.000000	100.000000	0.100000	0.000000
SDRYSM6009	3	SM6009	0.000000	0.000000	100.000000	0.100000	0.000000
SDRYSM6013	3	SM6013	0.000000	0.000000	100.000000	0.100000	0.000000
SDRYSM6015	3	SM6015	0.000000	0.000000	100.000000	0.100000	0.000000
SDRYSM6019	3	SM6019	0.000000	0.000000	100.000000	0.100000	0.000000
SDRYSM6023	3	SM6023	0.000000	0.000000	100.000000	0.100000	0.000000
SDRYSM6025	3	SM6025	0.000000	0.000000	100.000000	0.100000	0.000000
SDRYSM6029	3	SM6029	0.000000	0.000000	100.000000	0.100000	0.000000
SDRYSM6031	3	SM6031	0.000000	0.000000	100.000000	0.100000	0.000000
SDRYSM6033	3	SM6033	0.000000	0.000000	100.000000	0.100000	0.000000
SDRYSM6035	1	SM6035	0.000000	0.000000	100.000000	0.100000	0.000000
SDRYSM6037	1	SM6037	0.000000	0.000000	100.000000	0.100000	0.000000
SDRYSM6039	1	SM6039	0.000000	0.000000	100.000000	0.100000	0.000000
SDRYSM6041	1	SM6041	0.000000	0.000000	100.000000	0.100000	0.000000
SDRYSM6045	1	SM6045	0.000000	0.000000	100.000000	0.100000	0.000000
SDRYSM6047	1	SM6047	0.000000	0.000000	100.000000	0.100000	0.000000
SDRYSM6049	1	SM6049	0.000000	0.000000	100.000000	0.100000	0.000000
SDRYSM6051	1	SM6051	0.000000	0.000000	100.000000	0.100000	0.000000
SDRYSM6063	3	SM6063	0.000000	0.000000	100.000000	0.100000	0.000000
SDRYSM6065	3	SM6065	0.000000	0.000000	100.000000	0.100000	0.000000
SDRYSM6067	3	SM6067	0.000000	0.000000	100.000000	0.100000	0.000000
SDRYSM6071	1	SM6071	0.000000	0.000000	100.000000	0.100000	0.000000
SDRYSM6075	1	SM6075	0.000000	0.000000	100.000000	0.100000	0.000000
SDRYSM6091	1	SM6091	20.000031	65.000000	100.000000	0.100000	0.000000
SDRYSM6101	1	SM6101	20.000031	65.000000	100.000000	0.100000	0.000000
SDRYSM6111	3	SM6111	0.000000	0.000000	100.000000	0.100000	0.000000
SDRYSM6113	3	SM6113	0.000000	0.000000	100.000000	0.100000	0.000000
SDRYSM6117	3	SM6117	0.000000	0.000000	100.000000	0.100000	0.000000
SDRYSM6119	3	SM6119	0.000000	0.000000	100.000000	0.100000	0.000000
SDRYSM6123	3	SM6123	0.000000	0.000000	100.000000	0.100000	0.000000
SDRYSM6191	3	SM6191	0.000000	0.000000	100.000000	0.100000	0.000000
SDRYSM6193	3	SM6193	0.000000	0.000000	100.000000	0.100000	0.000000
SDRYSM6205	1	SM6205	0.000000	0.000000	100.000000	0.100000	0.000000
SDRYSM6211	1	SM6211	0.000000	0.000000	100.000000	0.100000	0.000000
SDRYSM6223	1	SM6223	0.000000	0.000000	100.000000	0.100000	0.000000
SDRYSM6227	1	SM6227	0.000000	0.000000	100.000000	0.100000	0.000000
SDRYSM6243	1	SM6243	0.000000	0.000000	100.000000	0.100000	0.000000
SDRYSM6263	1	SM6263	0.000000	0.000000	100.000000	0.100000	0.000000
SDRYSM6267	1	SM6267	0.000000	0.000000	100.000000	0.100000	0.000000
SDRYSM6273	1	SM6273	0.000000	0.000000	100.000000	0.100000	0.000000
SDRYSM6507	1	1001075	0.000000	0.000000	100.000000	0.100000	0.000000
SDRYSM6611	3	SM6611	0.000000	0.000000	100.000000	0.100000	0.000000
SDRYSM6617	3	SM6617	0.000000	0.000000	100.000000	0.100000	0.000000
SDRYSM6641	3	SM6641	0.000000	0.000000	100.000000	0.100000	0.000000
SDRYSM6643	3	SM6643	0.000000	0.000000	100.000000	0.100000	0.000000
SDRYSM70231	3	SM70231	0.000000	0.000000	100.000000	0.100000	0.000000
SDRYSM7067	3	1002197	0.000000	0.000000	100.000000	0.100000	0.000000
SDRYSM7077	3	1002221	0.000000	0.000000	100.000000	0.100000	0.000000