[TITLE]
;;Project Title/Notes

[OPTIONS]
;;Option             Value
FLOW_UNITS           CFS
INFILTRATION         HORTON
FLOW_ROUTING         DYNWAVE
LINK_OFFSETS         DEPTH
MIN_SLOPE            0
ALLOW_PONDING        YES
SKIP_STEADY_STATE    NO

IGNORE_SNOWMELT      YES
IGNORE_QUALITY       YES
START_DATE           02/01/2002
START_TIME           00:00:00
REPORT_START_DATE    02/02/2002
REPORT_START_TIME    00:00:00
END_DATE             02/02/2002
END_TIME             23:00:00
SWEEP_START          01/01
SWEEP_END            12/31
DRY_DAYS             5.000000
REPORT_STEP          00:05:00
WET_STEP             00:05:00
DRY_STEP             01:00:00
ROUTING_STEP         0:00:10 

INERTIAL_DAMPING     NONE
NORMAL_FLOW_LIMITED  BOTH
FORCE_MAIN_EQUATION  H-W
VARIABLE_STEP        0.75
LENGTHENING_STEP     20
MIN_SURFAREA         12.566000
MAX_TRIALS           4
HEAD_TOLERANCE       0.005000
SYS_FLOW_TOL         0
LAT_FLOW_TOL         0
MINIMUM_STEP         0
THREADS              1

[EVAPORATION]
;;Data Source    Parameters
;;-------------- ----------------
CONSTANT         0.000000
DRY_ONLY         NO

[RAINGAGES]
;;Name           Format    Interval SCF      Source    
;;-------------- --------- ------ ------ ----------
RAINGAGE_1       VOLUME    1.000000 1.000000 TIMESERIES 10-YEAR_DESIGN_STORM

[SUBCATCHMENTS]
;;Name           Rain Gage        Outlet           Area     %Imperv  Width    %Slope   CurbLen  SnowPack        
;;-------------- ---------------- ---------------- -------- -------- -------- -------- -------- ----------------
DA01             RAINGAGE_1       TS-H19-802       123.231773 3.700000 613.286000 0.361000 0.000000                 
DA02             RAINGAGE_1       MIS-I19-800      118.127203 15.100000 517.804000 0.710000 0.000000                 
DA03             RAINGAGE_1       MH-I19-100       130.376083 6.500000 437.369000 0.441000 0.000000                 
DA04             RAINGAGE_1       TS-J18-803       32.681644 57.800000 278.083000 1.118000 0.000000                 
DA05             RAINGAGE_1       MH-K19-106       15.800200 57.800000 100.759000 1.575000 0.000000                 
DA06             RAINGAGE_1       TS-K18-803       37.872434 53.800000 760.548000 1.126000 0.000000                 
DA07             RAINGAGE_1       JS-J18-503       41.887816 57.800000 1131.680000 1.195000 0.000000                 
DA08             RAINGAGE_1       TS-K18-802       102.980107 57.200000 863.647000 0.922000 0.000000                 
DA09             RAINGAGE_1       JSM-J17-501      24.411367 54.100000 136.643000 1.316000 0.000000                 
DA10             RAINGAGE_1       MH-J17-106       37.930501 52.800000 539.162000 1.078000 0.000000                 
DA11             RAINGAGE_1       MH-K18-107       59.750928 57.800000 344.614000 0.817000 0.000000                 
ED01             RAINGAGE_1       IN-Q39-1000      166.382606 21.200000 1390.000000 1.776000 0.000000                 
ED02             RAINGAGE_1       MH-P35-100       247.531963 11.200000 411.567000 0.256000 0.000000                 
ED03             RAINGAGE_1       CB-P37-301       221.443476 17.600000 500.000000 0.286000 0.000000                 
ED04             RAINGAGE_1       RR-P37-800       222.523325 23.700000 1566.000000 0.744000 0.000000                 
ED05             RAINGAGE_1       HW-P36-800       242.982824 66.700000 1402.414000 0.358000 0.000000                 
ED06             RAINGAGE_1       CB-P37-301       85.040684 36.300000 1108.000000 2.045000 0.000000                 
ED07             RAINGAGE_1       OUTFALL_OID      46.797000 42.100000 1974.657000 0.993000 0.000000                 
ED08             RAINGAGE_1       HW-P36-800       186.178445 41.900000 578.156000 0.256000 0.000000                 
ED09             RAINGAGE_1       JS-P35-500       105.823491 66.800000 516.389000 0.371000 0.000000                 
EF01             RAINGAGE_1       JS-V19-518       147.031154 66.800000 2189.850000 1.772000 0.000000                 
EF02             RAINGAGE_1       IN-V18-1003      141.943313 66.800000 2003.850000 0.654000 0.000000                 
EF03             RAINGAGE_1       TS-V17-804       304.094057 73.300000 2130.610000 1.012000 0.000000                 
EF04             RAINGAGE_1       JS-U21-503       27.346502 66.800000 263.457000 0.063000 0.000000                 
EF05             RAINGAGE_1       JS-V21-508       14.073578 68.300000 179.556000 1.609000 0.000000                 
EF06             RAINGAGE_1       GB-V21-803       28.616049 66.800000 351.648000 1.475000 0.000000                 
EF07             RAINGAGE_1       MH-T20-100       36.826232 66.800000 501.207000 2.216000 0.000000                 
EF08             RAINGAGE_1       MH-U20-106       25.576337 66.800000 364.631000 4.755000 0.000000                 
EF09             RAINGAGE_1       MH-V20-103       43.896184 66.800000 524.741000 2.010000 0.000000                 
EF10             RAINGAGE_1       JS-V19-505       19.625778 66.800000 407.842000 3.444000 0.000000                 
EF11             RAINGAGE_1       JS-V19-514       27.314385 67.300000 660.157000 1.334000 0.000000                 
EF12             RAINGAGE_1       JS-V20-525       34.480131 66.800000 418.797000 2.820000 0.000000                 
EF13             RAINGAGE_1       JS-V19-535       23.943792 66.800000 991.194000 1.676000 0.000000                 
EF14             RAINGAGE_1       JS-V22-503       64.701815 66.800000 1029.410000 1.965000 0.000000                 
EF15             RAINGAGE_1       JS-V22-500       51.713281 66.800000 822.922000 4.821000 0.000000                 
EF16             RAINGAGE_1       JS-U22-506       104.607000 66.800000 130.447000 1.720000 0.000000                 
EF17             RAINGAGE_1       JSM-T21-505      30.681000 66.800000 561.094000 1.963000 0.000000                 
ER01             RAINGAGE_1       OL-O16-801       13.615529 76.100000 193.098000 0.703000 0.000000                 
ER02             RAINGAGE_1       CB-O17-301       20.208235 59.500000 212.268000 0.868000 0.000000                 
ER03             RAINGAGE_1       MH-P16-110       37.542451 65.700000 411.149000 0.618000 0.000000                 
ER04             RAINGAGE_1       MH-P16-100       19.533178 67.900000 242.206000 0.840000 0.000000                 
ER05             RAINGAGE_1       MH-P17-105       24.747399 60.200000 242.075000 0.999000 0.000000                 
ER06             RAINGAGE_1       JS-O16-513       43.996960 49.700000 703.109000 0.910000 0.000000                 
ER07             RAINGAGE_1       JS-O16-500       110.130988 57.900000 1103.050000 0.667000 0.000000                 
ER08             RAINGAGE_1       JS-O16-516       28.296404 77.300000 548.450000 0.819000 0.000000                 
ER09             RAINGAGE_1       CB-N14-307       68.538749 60.100000 688.662000 1.011000 0.000000                 
ER10             RAINGAGE_1       CB-N14-307       24.947949 72.800000 783.083000 0.998000 0.000000                 
ER11             RAINGAGE_1       MIS-M12-804      55.811112 53.500000 690.195000 0.901000 0.000000                 
ER12             RAINGAGE_1       TS-M12-801       27.999824 62.400000 435.373000 0.031000 0.000000                 
ER13             RAINGAGE_1       JS-M12-500       42.015781 73.500000 931.075000 1.145000 0.000000                 
ER14             RAINGAGE_1       OUTFALL_ER_03    30.555692 66.600000 1379.300000 3.307000 0.000000                 
ER15             RAINGAGE_1       CR-P14-801       90.124416 62.400000 782.321000 0.983000 0.000000                 
ER16             RAINGAGE_1       CR-P14-801       46.982705 62.800000 752.910000 1.214000 0.000000                 
ER17             RAINGAGE_1       CR-P14-801       41.588786 63.700000 943.280000 0.423000 0.000000                 
ER18             RAINGAGE_1       JS-O14-508       56.083533 72.700000 961.312000 0.953000 0.000000                 
ER19             RAINGAGE_1       HW-O14-808       12.215120 80.500000 310.925000 1.102000 0.000000                 
ER20             RAINGAGE_1       JS-O14-504       25.431336 80.500000 790.888000 0.801000 0.000000                 
ER21             RAINGAGE_1       HW-O13-800       23.276742 61.400000 451.625000 0.691000 0.000000                 
ER22             RAINGAGE_1       JS-N13-518       61.487619 80.500000 1667.110000 1.637000 0.000000                 
ER23             RAINGAGE_1       JS-O13-520       68.394785 62.600000 1151.920000 1.334000 0.000000                 
ER24             RAINGAGE_1       JS-O16-504       58.556410 60.400000 680.271000 0.815000 0.000000                 
ER25             RAINGAGE_1       CB-O17-301       1.728906 72.400000 33.657000 0.753000 0.000000                 
ER26             RAINGAGE_1       JS-O14-507       16.386384 80.500000 1433.810000 1.201000 0.000000                 
ER27             RAINGAGE_1       JS-N14-500       15.937659 78.100000 1014.070000 2.582000 0.000000                 
ER28             RAINGAGE_1       JS-N13-513       10.001115 76.700000 1454.970000 0.986000 0.000000                 
EV01             RAINGAGE_1       JS-Q12-501       219.121425 56.900000 1500.300000 0.742000 0.000000                 
EV02             RAINGAGE_1       MH-P12-100       158.544222 60.900000 1557.560000 0.956000 0.000000                 
EV03             RAINGAGE_1       OL-O10-800       40.100000 23.800000 5558.940000 0.054000 0.000000                 
EV04             RAINGAGE_1       MH-P10-105       28.609359 58.500000 428.361000 0.653000 0.000000                 
EV05             RAINGAGE_1       JS-P11-500       42.613892 40.200000 412.866000 6.752000 0.000000                 
EV06             RAINGAGE_1       JS-O11-507       16.809323 55.800000 525.970000 2.189000 0.000000                 
EV07             RAINGAGE_1       JS-O10-504       10.269404 42.800000 787.981000 3.379000 0.000000                 
EV08             RAINGAGE_1       PL-O9-1200       64.554457 55.000000 1930.510000 2.056000 0.000000                 
EV09             RAINGAGE_1       MH-M11-100       38.740218 80.500000 1093.940000 13.913000 0.000000                 
EV10             RAINGAGE_1       JS-M11-504       37.588774 79.500000 1104.380000 6.834000 0.000000                 
EV11             RAINGAGE_1       MH-O11-103       54.976203 62.200000 752.883000 17.584000 0.000000                 
EV12             RAINGAGE_1       JSM-N10-512      48.547835 47.800000 1572.020000 0.446000 0.000000                 
EV13             RAINGAGE_1       MH-O12-128       25.436511 80.500000 1353.760000 0.469000 0.000000                 
EV14             RAINGAGE_1       JS-N10-510       34.724706 51.600000 1021.370000 5.580000 0.000000                 
EV15             RAINGAGE_1       JS-O11-500       27.378393 67.100000 899.810000 2.381000 0.000000                 
EV16             RAINGAGE_1       JS-O11-503       31.218871 80.400000 944.305000 3.685000 0.000000                 
EV17             RAINGAGE_1       MH-N11-115       18.794219 80.500000 868.710000 0.876000 0.000000                 
EV18             RAINGAGE_1       JS-N11-521       20.741803 80.500000 734.328000 5.887000 0.000000                 
EV19             RAINGAGE_1       OUTFALL_EV-FUTURE 224.200000 51.500000 2202.000000 0.424000 0.000000                 
EV20             RAINGAGE_1       OUTFALL_EV-FUTURE 63.560654 20.600000 1331.000000 0.474000 0.000000                 
EV21             RAINGAGE_1       OUTFALL_EV-FUTURE 145.460631 21.900000 1568.000000 0.560000 0.000000                 
EV22             RAINGAGE_1       OUTFALL_EV-FUTURE 149.242694 13.400000 1943.000000 0.639000 0.000000                 
EV23             RAINGAGE_1       OUTFALL_EV-FUTURE 374.916174 24.900000 2758.000000 0.415000 0.000000                 
EV24             RAINGAGE_1       OUTFALL_EV-FUTURE 197.851571 20.900000 1827.000000 0.773000 0.000000                 
EV25             RAINGAGE_1       OUTFALL_EV-FUTURE 125.765234 13.800000 1175.000000 0.390000 0.000000                 
EV26             RAINGAGE_1       OUTFALL_EV-FUTURE 261.696669 31.500000 2674.000000 0.452000 0.000000                 
EV27             RAINGAGE_1       OUTFALL_EV-FUTURE 110.380047 34.300000 1038.000000 0.789000 0.000000                 
HB01             RAINGAGE_1       MH-F27-100       10.174520 57.800000 705.320000 1.370000 0.000000                 
HB02             RAINGAGE_1       OUTFALL_HB_08    22.970000 57.600000 589.000000 2.430000 0.000000                 
HB03             RAINGAGE_1       MIS-F26-803      43.002887 30.800000 1135.105000 1.540000 0.000000                 
HB04             RAINGAGE_1       JS-F27-501       39.670013 56.700000 1119.828000 2.084000 0.000000                 
HB05             RAINGAGE_1       MH-F27-101       7.894870 57.800000 360.114000 2.114000 0.000000                 
HB06             RAINGAGE_1       MH-F28-102       36.844659 60.700000 1451.074000 1.859000 0.000000                 
; %imp was 38.2
HB07             RAINGAGE_1       OUTFALL_HB_05    101.500000 38.200000 1051.000000 1.779000 0.000000                 
; %imp was 30
HB08             RAINGAGE_1       OUTFALL_HB_05    93.564762 56.100000 1009.000000 3.170000 0.000000                 
; %Imp was 33.7
HB09             RAINGAGE_1       JCT-12           71.700000 33.700000 884.000000 0.626000 0.000000                 
; %imp was 30
HB10             RAINGAGE_1       OUTFALL_HB_05    56.625479 53.700000 785.000000 5.117000 0.000000                 
HB11             RAINGAGE_1       JCT-12           53.810296 60.100000 1808.850000 6.716000 0.000000                 
HB12             RAINGAGE_1       OUTFALL_HB_12    229.534588 27.200000 1581.000000 3.881000 0.000000                 
HB13             RAINGAGE_1       OUTFALL_HB_06    172.912530 17.500000 1372.000000 2.649000 0.000000                 
HB14             RAINGAGE_1       OUTFALL_HB_06    161.141830 17.200000 1325.000000 1.987000 0.000000                 
HB15             RAINGAGE_1       OUTFALL_HB_06    25.941933 17.500000 532.000000 1.252000 0.000000                 
HB17             RAINGAGE_1       MH-F26-100       8.928399 55.100000 391.000000 1.150000 0.000000                 
HB18             RAINGAGE_1       OUTFALL_HB_08    86.250000 63.200000 1136.090000 3.110000 0.000000                 
HS01             RAINGAGE_1       CB-H26-310       12.332013 62.800000 185.461000 0.974000 0.000000                 
HS02             RAINGAGE_1       JS-I26-506       56.724517 56.000000 828.801000 0.954000 0.000000                 
HS03             RAINGAGE_1       MH-I26-102       80.461385 48.000000 1073.927000 0.698000 0.000000                 
HS04             RAINGAGE_1       GB-H26-800       30.488978 61.400000 857.243000 0.700000 0.000000                 
HS05             RAINGAGE_1       MH-H25-106       9.507930 60.700000 165.368000 0.548000 0.000000                 
HS06             RAINGAGE_1       MH-H25-101       62.290425 57.800000 997.871000 1.052000 0.000000                 
HS07             RAINGAGE_1       MH-H24-106       36.698864 57.800000 558.551000 1.182000 0.000000                 
; %Imp was 25.6
HS08             RAINGAGE_1       OUTFALL_HS_03    164.000000 57.600000 1336.000000 0.653000 0.000000                 
JS01             RAINGAGE_1       PL-O25-1201      101.778832 63.000000 1753.832000 0.363000 0.000000                 
JS02             RAINGAGE_1       JS-M35-500       36.633801 66.800000 702.551000 0.676000 0.000000                 
JS03             RAINGAGE_1       IN-M34-1001      47.621119 62.100000 857.004000 0.698000 0.000000                 
JS04             RAINGAGE_1       MH-M33-101       35.516198 56.400000 738.858000 0.887000 0.000000                 
JS05             RAINGAGE_1       MH-N33-109       25.721477 61.300000 533.820000 0.650000 0.000000                 
JS06             RAINGAGE_1       JS-N32-507       81.700272 61.500000 1151.916000 0.630000 0.000000                 
JS07             RAINGAGE_1       JS-M32-506       71.393202 50.400000 1151.525000 0.739000 0.000000                 
JS08             RAINGAGE_1       MH-M27-100       35.900880 43.100000 2228.100000 0.554000 0.000000                 
JS09             RAINGAGE_1       JS-O31-501       41.647738 65.000000 765.026000 0.638000 0.000000                 
JS10             RAINGAGE_1       IN-M28-1000      73.711757 62.800000 1989.690000 0.859000 0.000000                 
JS11             RAINGAGE_1       TS-L27-800       31.099528 63.000000 1990.970000 0.555000 0.000000                 
JS12             RAINGAGE_1       MH-O27-101       24.240734 58.800000 1451.700000 0.478000 0.000000                 
JS13             RAINGAGE_1       MH-O27-107       42.154175 61.800000 1655.370000 0.480000 0.000000                 
JS14             RAINGAGE_1       MH-N31-102       43.095854 58.800000 581.547000 0.584000 0.000000                 
JS15             RAINGAGE_1       JS-M31-503       53.795964 49.200000 863.493000 0.556000 0.000000                 
JS16             RAINGAGE_1       MH-O31-102       105.177624 51.600000 1879.259000 0.767000 0.000000                 
JS17             RAINGAGE_1       JS-M30-500       116.094814 62.500000 1035.093000 0.742000 0.000000                 
JS18             RAINGAGE_1       JS-M30-500       87.221821 61.800000 622.091000 0.386000 0.000000                 
JS19             RAINGAGE_1       JS-M28-506       114.684843 63.200000 534.045000 0.532000 0.000000                 
JS20             RAINGAGE_1       JS-O28-500       72.060817 66.300000 766.776000 0.507000 0.000000                 
JS21             RAINGAGE_1       JS-O27-503       35.721718 61.500000 553.642000 0.639000 0.000000                 
JS22             RAINGAGE_1       MH-O26-102       37.377193 54.900000 1331.330000 0.458000 0.000000                 
JS23             RAINGAGE_1       JS-O26-507       55.178839 61.300000 907.193000 0.363000 0.000000                 
JS24             RAINGAGE_1       JS-N28-511       34.022144 73.300000 495.259000 0.586000 0.000000                 
JS25             RAINGAGE_1       GB-N26-806       87.332218 55.100000 2421.210000 0.487000 0.000000                 
NA01             RAINGAGE_1       IN-W16-1000      98.553609 47.000000 119.123000 2.528000 0.000000                 
NA02             RAINGAGE_1       JS-V15-500       181.139329 54.800000 1265.570000 1.808000 0.000000                 
NA03             RAINGAGE_1       JS-U14-507       109.275354 13.200000 815.940000 0.590000 0.000000                 
NA04             RAINGAGE_1       JS-T14-501       43.821745 3.900000 618.037000 0.430000 0.000000                 
NA05             RAINGAGE_1       JS-T14-500       143.956396 3.200000 893.042000 0.364000 0.000000                 
NA06             RAINGAGE_1       GI-S14-1001      145.275769 10.900000 1120.070000 1.055000 0.000000                 
NA07             RAINGAGE_1       JS-T14-517       18.476161 60.600000 410.794000 13.961000 0.000000                 
NA08             RAINGAGE_1       MH-T15-101       11.667214 64.000000 398.503000 1.470000 0.000000                 
NA09             RAINGAGE_1       JSM-R15-505      84.627520 65.500000 1789.370000 1.286000 0.000000                 
NA10             RAINGAGE_1       MH-R14-101       19.190273 80.500000 162.243000 9.603000 0.000000                 
NA11             RAINGAGE_1       MH-R15-100       16.590296 80.500000 472.505000 2.587000 0.000000                 
NA12             RAINGAGE_1       MH-R15-103       11.036313 80.800000 350.790000 1.022000 0.000000                 
NA13             RAINGAGE_1       MH-S15-117       32.645484 80.500000 808.025000 2.201000 0.000000                 
NA14             RAINGAGE_1       MH-S15-108       33.115581 72.100000 734.785000 2.685000 0.000000                 
NA15             RAINGAGE_1       JSM-S15-503      14.325904 58.600000 385.860000 12.562000 0.000000                 
NA16             RAINGAGE_1       JSM-S15-503      10.895165 70.100000 254.937000 4.802000 0.000000                 
NV01             RAINGAGE_1       TS-L14-801       65.703491 54.800000 1154.270000 1.053000 0.000000                 
NV02             RAINGAGE_1       JS-M14-505       64.781292 51.700000 947.223000 1.409000 0.000000                 
NV03             RAINGAGE_1       MH-L14-109       24.858537 57.800000 444.637000 0.840000 0.000000                 
NV04             RAINGAGE_1       MH-L13-106       39.038725 50.700000 1162.730000 1.209000 0.000000                 
NV05             RAINGAGE_1       MH-M13-101       19.479094 53.300000 369.837000 1.137000 0.000000                 
NV06             RAINGAGE_1       JSM-M13-513      49.934123 56.700000 866.081000 1.269000 0.000000                 
NV07             RAINGAGE_1       MH-L13-119       37.418430 52.600000 1164.160000 0.979000 0.000000                 
NV08             RAINGAGE_1       TS-L14-801       6.329000 57.800000 138.715000 0.940000 0.000000                 
OI01             RAINGAGE_1       JS-O34-518       14.253457 55.500000 733.172000 0.871000 0.000000                 
OI02             RAINGAGE_1       MIS-P25-801      18.538853 73.200000 662.020000 0.767000 0.000000                 
OI03             RAINGAGE_1       MH-O24-104       27.312177 80.300000 425.094000 0.565000 0.000000                 
OI04             RAINGAGE_1       CB-O24-303       5.282162 80.500000 57.843000 0.317000 0.000000                 
OI05             RAINGAGE_1       MH-O23-102       12.898650 78.300000 219.464000 0.816000 0.000000                 
OI06             RAINGAGE_1       MH-O22-108       34.294247 71.100000 358.067000 0.361000 0.000000                 
OI07             RAINGAGE_1       RR-N36-800       93.231366 36.000000 768.307000 0.443000 0.000000                 
OI08             RAINGAGE_1       JS-O34-562       118.821959 51.200000 868.773000 0.302000 0.000000                 
OI09             RAINGAGE_1       MH-P24-103       17.094338 74.200000 174.972000 0.478000 0.000000                 
OI10             RAINGAGE_1       MH-P23-107       33.441349 66.800000 311.858000 0.540000 0.000000                 
OI11             RAINGAGE_1       JS-P24-501       29.134770 73.100000 431.650000 0.682000 0.000000                 
OI12             RAINGAGE_1       JS-P23-504       10.179634 72.900000 592.985000 0.540000 0.000000                 
OI13             RAINGAGE_1       JS-Q23-500       23.422825 71.800000 218.655000 0.470000 0.000000                 
OI14             RAINGAGE_1       MH-P23-104       31.853314 75.700000 483.422000 0.472000 0.000000                 
OI15             RAINGAGE_1       JS-P22-503       19.128051 77.000000 145.888000 0.495000 0.000000                 
OI16             RAINGAGE_1       TS-P23-804       37.639531 80.400000 308.096000 0.665000 0.000000                 
OI17             RAINGAGE_1       TS-P23-801       19.731826 78.800000 565.667000 0.434000 0.000000                 
OI18             RAINGAGE_1       MH-Q22-100       26.456769 73.400000 369.715000 0.746000 0.000000                 
OI19             RAINGAGE_1       MH-P22-106       21.362374 71.800000 314.805000 0.424000 0.000000                 
OI20             RAINGAGE_1       MH-P22-103       26.271640 66.800000 444.176000 0.541000 0.000000                 
OI21             RAINGAGE_1       MH-O21-103       35.486654 72.300000 285.624000 0.561000 0.000000                 
OI22             RAINGAGE_1       JS-O21-511       22.144321 81.600000 208.024000 0.614000 0.000000                 
OI23             RAINGAGE_1       JS-P21-505       11.974477 78.400000 254.802000 0.607000 0.000000                 
OI24             RAINGAGE_1       JS-O21-508       16.500867 70.500000 409.233000 0.388000 0.000000                 
OI25             RAINGAGE_1       MH-O20-110       28.701722 69.200000 544.542000 0.300000 0.000000                 
OI26             RAINGAGE_1       JS-P21-511       32.039986 61.400000 586.176000 0.394000 0.000000                 
OI27             RAINGAGE_1       TS-P21-807       42.645225 70.200000 541.542000 0.554000 0.000000                 
OI28             RAINGAGE_1       MH-P21-100       77.026794 43.100000 851.488000 0.502000 0.000000                 
OI29             RAINGAGE_1       JS-O20-516       43.697275 68.800000 470.587000 0.421000 0.000000                 
OI30             RAINGAGE_1       MH-O21-103       23.260732 73.000000 583.647000 0.323000 0.000000                 
OI31             RAINGAGE_1       JS-P20-501       10.005945 60.900000 102.405000 0.717000 0.000000                 
OI32             RAINGAGE_1       JS-P19-505       33.988991 59.900000 965.010000 1.067000 0.000000                 
OI33             RAINGAGE_1       MH-O22-105       19.076770 80.500000 186.918000 0.524000 0.000000                 
OI34             RAINGAGE_1       MH-O21-107       11.910478 80.400000 139.470000 0.633000 0.000000                 
OI35             RAINGAGE_1       GI-P19-1001      20.393851 57.800000 216.563000 0.763000 0.000000                 
OI36             RAINGAGE_1       JS-P19-511       13.395601 53.900000 164.385000 0.608000 0.000000                 
OI37             RAINGAGE_1       MH-O19-135       29.205487 50.400000 551.753000 0.880000 0.000000                 
OI38             RAINGAGE_1       JS-P18-504       57.093930 53.300000 716.403000 1.204000 0.000000                 
OI39             RAINGAGE_1       MH-O19-132       22.831177 60.800000 751.251000 0.810000 0.000000                 
OI40             RAINGAGE_1       RR-N36-800       46.471441 39.500000 1452.609000 0.742000 0.000000                 
OI41             RAINGAGE_1       MH-O19-118       14.322606 62.600000 424.713000 1.066000 0.000000                 
OI42             RAINGAGE_1       MH-O18-128       40.111268 59.000000 638.131000 1.052000 0.000000                 
OI43             RAINGAGE_1       JSM-O18-506      17.837573 46.300000 382.836000 1.565000 0.000000                 
OI44             RAINGAGE_1       JSM-O17-505      77.629666 35.000000 772.366000 0.759000 0.000000                 
OI45             RAINGAGE_1       JSM-P18-514      51.598242 59.100000 598.623000 1.324000 0.000000                 
OI46             RAINGAGE_1       JS-N36-501       94.424999 44.800000 1653.814000 2.221000 0.000000                 
OI47             RAINGAGE_1       IN-O35-1000      32.115431 47.300000 1084.699000 0.868000 0.000000                 
OI48             RAINGAGE_1       JS-P33-501       17.569629 58.100000 260.004000 1.323000 0.000000                 
OI49             RAINGAGE_1       JS-O34-504       44.030597 54.400000 879.073000 0.474000 0.000000                 
OI50             RAINGAGE_1       JS-P33-502       17.805213 59.000000 458.223000 0.746000 0.000000                 
OI51             RAINGAGE_1       IN-M35-1002      7.279000 64.300000 402.204000 0.063000 0.000000                 
OI52             RAINGAGE_1       JSM-O34-525      41.442923 61.100000 997.747000 0.614000 0.000000                 
OI53             RAINGAGE_1       MH-O32-101       26.220746 57.900000 378.067000 0.441000 0.000000                 
OI54             RAINGAGE_1       JSM-O33-510      23.734647 63.200000 347.338000 0.807000 0.000000                 
OI55             RAINGAGE_1       JS-O34-506       24.535248 57.800000 656.377000 0.499000 0.000000                 
OI56             RAINGAGE_1       TS-P32-802       65.302023 51.000000 901.639000 0.940000 0.000000                 
OI57             RAINGAGE_1       JS-P32-504       92.784362 56.200000 3051.270000 1.378000 0.000000                 
OI58             RAINGAGE_1       JS-P30-501       31.823884 60.400000 542.817000 0.872000 0.000000                 
OI59             RAINGAGE_1       JS-P30-501       30.831038 58.600000 706.421000 0.925000 0.000000                 
OI60             RAINGAGE_1       JS-P29-504       72.733742 47.700000 1002.381000 0.658000 0.000000                 
OI61             RAINGAGE_1       IN-P28-1001      22.998356 59.300000 974.666000 0.819000 0.000000                 
OI62             RAINGAGE_1       JS-P29-504       66.864257 57.200000 480.997000 0.554000 0.000000                 
OI63             RAINGAGE_1       JS-O34-562       28.199000 66.800000 172.464000 0.573000 0.000000                 
OI64             RAINGAGE_1       MH-Q28-105       16.497564 45.700000 314.980000 1.043000 0.000000                 
OI65             RAINGAGE_1       MH-Q28-105       28.681234 65.700000 729.993000 0.263000 0.000000                 
OI66             RAINGAGE_1       MH-Q27-104       11.895759 69.000000 329.353000 0.613000 0.000000                 
OI67             RAINGAGE_1       JS-P28-504       35.879896 70.900000 1410.250000 1.061000 0.000000                 
OI68             RAINGAGE_1       JS-P27-500       54.653979 74.400000 959.655000 0.684000 0.000000                 
OI69             RAINGAGE_1       JS-O34-562       69.239000 65.500000 876.524000 0.577000 0.000000                 
OI70             RAINGAGE_1       JS-P25-507       35.862781 73.300000 1164.460000 0.678000 0.000000                 
OI71             RAINGAGE_1       CB-Q25-301       61.012597 66.800000 650.329000 0.656000 0.000000                 
OI72             RAINGAGE_1       MH-P25-105       41.600419 71.000000 1011.960000 0.880000 0.000000                 
OI73             RAINGAGE_1       JS-P25-500       38.403373 66.800000 899.747000 0.513000 0.000000                 
OI74             RAINGAGE_1       CB-O24-317       29.034219 80.500000 484.026000 0.281000 0.000000                 
OI75             RAINGAGE_1       CB-O24-329       48.698333 76.200000 968.085000 0.838000 0.000000                 