; SWMM5 export of network Baseline-2045 DWF & 500 mgd Plant Capacity from InfoWorks 9.0.4.18017
; Entire Network
[TITLE]
Baseline for VCP alternative analysis = Calibrated model as of 1/3/2012 + 2045 DWF + 500 mgd plant capacity.
[OPTIONS]
FLOW_UNITS CMS
INFILTRATION HORTON
ALLOW_PONDING YES
[SUBCATCHMENTS]
; Name Raingage Outlet Area %Imperv Width Slope Clength
000 1 C01.001 1.899798 73.000000 233.354880 4.366452 0.000000
001 1 C03.001 1.512205 73.000000 208.147920 2.444614 0.000000
002 1 C04.001 1.886390 73.000000 232.470960 2.197457 0.000000
003 1 C05.001 1.642744 73.000000 216.926160 3.261192 0.000000
004 1 C06.001 2.110911 73.000000 245.668800 3.718695 0.000000
010 1 59 29.376085 80.000000 917.356560 0.000000 0.000000
013 1 392631 11.014058 80.000000 561.715920 0.000000 0.000000
015 1 58 21.931527 80.000000 792.662880 0.000000 0.000000
020 1 Reg7.07 16.658652 73.000000 690.829200 1.850139 0.000000
021 1 395717 3.045871 73.000000 295.351200 1.392758 0.000000
022 1 N719 13.653991 73.000000 625.449600 1.468199 0.000000
023 1 Reg7.05 23.375725 73.000000 818.296560 1.214237 0.000000
024 1 C10.001 24.908696 73.000000 844.509360 0.000000 0.000000
025 1 Reg7.04 8.161914 73.000000 483.534720 0.922181 0.000000
026 1 Reg7.03 8.003052 73.000000 478.779840 1.678054 0.000000
027 1 Reg7.02 7.423830 73.000000 461.131920 1.863310 0.000000
028 1 Reg7.01 7.313445 73.000000 458.205840 2.831524 0.000000
030 1 C16.001 14.776913 73.000000 651.205200 0.000000 0.000000
031 1 E92St_1Ave 16.389201 73.000000 685.220880 0.488593 0.000000
032 1 392731 21.108647 73.000000 777.819120 1.685783 0.000000
035 1 C15.001 7.255403 73.000000 459.486000 0.000000 0.000000
038 1 E95St_2ndAve 13.372377 73.000000 618.957360 0.000000 0.000000
040 1 120 42.615784 73.000000 11049.213360 0.078448 0.000000
042 1 C19.001 10.355424 73.000000 544.464240 0.649491 0.000000
045 1 110 10.665306 73.000000 552.754800 0.747526 0.000000
046 1 E110St_LexingtonAve 4.426807 73.000000 356.128320 0.000000 0.000000
047 1 C25.001 34.157871 73.000000 988.771200 1.586972 0.000000
048 1 101 11.940178 73.000000 584.850240 0.118998 0.000000
049 1 88 12.961655 80.000000 3046.811280 0.100000 0.000000
05 1 05 8.968563 47.560000 506.882400 0.125000 0.000000
050 1 283410 2.327308 80.000000 1291.041360 0.300000 0.000000
051 1 105 10.650866 73.000000 552.389040 0.000000 0.000000
052 1 106 12.053034 73.000000 587.623920 0.000000 0.000000
054 1 100 12.793784 73.000000 605.393760 0.212622 0.000000
060 1 C62.M27 11.610495 60.280000 576.742560 0.017116 0.000000
061 1 C62.M26 15.990965 55.770000 676.838880 2.091695 0.000000
062 1 C65.001 48.837090 51.340000 1179.240720 0.000000 0.000000
063 1 39433 13.229089 62.040000 615.604560 3.100444 0.000000
064 1 C62.M24 5.352378 75.240000 391.576560 0.309693 0.000000
065 1 C62.M23 10.684501 62.540000 553.242480 0.375000 0.000000
066 1 C60.007 16.302133 71.390000 683.392080 0.000000 0.000000
067 1 C62.M21 24.512419 59.840000 837.986640 0.000000 0.000000
068 1 C60.M05 7.423607 70.960000 461.162400 1.946066 0.000000
069 1 C60.M04 5.541748 74.700000 398.434560 0.000000 0.000000
070 1 C60.M03 4.301586 66.120000 351.038160 0.409612 0.000000
071 1 C60.M02 8.479304 65.930000 492.861600 0.253015 0.000000
073 1 392467 20.463735 68.560000 765.657600 0.880799 0.000000
076 1 C60.M06 9.807868 72.240000 530.077680 3.775168 0.000000
077 1 C62.M28 5.177830 58.620000 385.145280 0.633658 0.000000
078 1 C60.M07 22.109885 71.970000 795.863280 3.492535 0.000000
080 1 C62.M07 6.406998 57.240000 428.426880 0.161368 0.000000
081 1 C62.M05 9.849873 57.930000 531.205440 0.365330 0.000000
082 1 C62.M03 27.472134 60.860000 887.150880 0.615787 0.000000
084 1 391524 12.606963 66.340000 600.974160 0.389590 0.000000
085 1 C62.M02 8.757687 69.160000 500.877840 0.078137 0.000000
087 1 C53.M10 6.411199 62.570000 428.579280 0.000000 0.000000
088 1 C53.M08 11.009604 58.890000 561.594000 0.644330 0.000000
089 1 C53.M07 1.398946 49.490000 200.192640 0.258994 0.000000
090 1 C53.M07 32.143584 60.430000 959.601840 0.258994 0.000000
091 1 C53.M06 6.940787 64.630000 445.922400 0.200000 0.000000
094 1 C53.M04 15.235131 54.660000 660.654000 0.000000 0.000000
095 1 12 33.587820 65.060000 980.937840 0.284823 0.000000
097 1 39577 20.500996 45.110000 767.455920 0.041116 0.000000
098 1 C53.M01 3.372083 62.420000 310.804560 0.576614 0.000000
099 1 C62.M01 9.104825 66.790000 510.722880 1.830757 0.000000
100 1 C53.011 23.363032 59.080000 820.277760 0.000000 0.000000
102 1 394848 33.728597 73.000000 979.535760 5.284237 0.000000
10201 1 20333 92.224767 51.280000 1625.437440 1.087062 0.000000
104 1 W178st_AmsterdamAve 15.430832 73.000000 664.890720 0.040209 0.000000
106 1 130 12.152815 73.000000 589.696560 1.498618 0.000000
107 1 47 14.041154 73.000000 611.825040 1.778061 0.000000
109 1 46 12.852588 73.000000 606.795840 4.615158 0.000000
112 1 43 8.087190 73.000000 481.340160 1.293032 0.000000
115 1 70 49.708056 73.000000 594.603840 0.457226 0.000000
119 1 C61.001 31.204752 49.740000 946.617360 3.333333 0.000000
120 1 C60.005 20.000447 58.140000 756.940320 3.348289 0.000000
121 1 usTG60A 8.421329 62.200000 491.185200 0.306250 0.000000
122 1 28 5.406406 66.110000 393.557760 1.168785 0.000000
123 1 C60.005 37.818851 72.270000 1040.892000 3.348289 0.000000
125 1 28 2.287010 80.850000 255.971040 1.168785 0.000000
127 1 44 32.278441 64.100000 961.613520 1.258633 0.000000
129 1 C60.M01 24.599732 66.450000 839.480160 2.866749 0.000000
130 1 39171 4.788795 64.330000 370.392960 0.898556 0.000000
131 1 C62.M01 7.447181 65.270000 461.893920 1.830757 0.000000
133 1 C50.001 13.829403 73.000000 629.442480 0.000000 0.000000
134 1 WI50-050 2.446640 73.000000 276.849840 0.000000 0.000000
135 1 usTG60A 9.712601 60.690000 536.661360 0.306250 0.000000
136 1 usTG60A 17.286400 49.220000 703.722240 0.306250 0.000000
138 1 usTG60A 8.908448 39.600000 505.175520 0.306250 0.000000
139 1 usTG60A 40.690258 58.710000 1079.662560 0.306250 0.000000
148 1 C72.001 11.926489 49.670000 608.015040 0.000000 0.000000
15 1 21 19.030311 67.460000 738.347520 1.035693 0.000000
150 1 53 18.913947 63.840000 736.092000 0.547932 0.000000
151 1 52 5.844902 73.500000 409.194000 1.523574 0.000000
153 1 C53.008 23.609677 68.510000 822.411360 0.000000 0.000000
156 1 49 12.559658 70.480000 599.846400 0.638183 0.000000
158 1 51 7.367189 67.450000 459.394560 0.463326 0.000000
162 1 391255 14.738982 51.060000 649.803120 0.269308 0.000000
163 1 39171 12.073349 40.050000 588.111600 0.898556 0.000000
164 1 C53.009 29.221056 52.680000 322.204080 0.124144 0.000000
165 1 391358 7.814624 60.550000 473.141040 0.061651 0.000000
167 1 39880 4.147481 76.960000 344.698320 0.061661 0.000000
168 1 C53.007 9.530628 51.680000 522.518640 0.121356 0.000000
169 1 391255 53.361264 52.160000 1238.250000 0.269308 0.000000
171 1 C53.006 48.503582 53.540000 1178.783520 0.375676 0.000000
173 1 82 21.385392 73.000000 391.363200 0.000000 0.000000
178 1 83 2.702309 73.000000 139.110720 0.200979 0.000000
179 1 76 8.304832 73.000000 243.870480 0.280447 0.000000
180 1 86 3.699724 73.000000 162.793680 0.429368 0.000000
183 1 74 11.250813 73.000000 283.860240 0.530156 0.000000
18523 1 18 44.393309 61.560000 1127.729520 0.416031 0.000000
186 1 81 2.238624 73.000000 126.613920 0.345500 0.000000
187 1 69 2.117506 73.000000 123.139200 0.000000 0.000000
190 1 77 2.482891 73.000000 133.350000 2.940000 0.000000
191 1 85 4.420031 73.000000 177.911760 0.000000 0.000000
193 1 84 3.925003 73.000000 167.670480 0.000000 0.000000
195 1 80 10.417517 73.000000 273.161760 0.000000 0.000000
196 1 39040 5.597004 73.000000 400.415760 0.208290 0.000000
202 1 C44.001 3.905597 73.000000 327.080880 0.000000 0.000000
203 1 R42 2.024352 73.000000 243.230400 0.000000 0.000000
204 1 C41.001 10.984453 73.000000 559.399440 0.460398 0.000000
205 1 73 35.950616 56.710000 1009.436640 0.376415 0.000000
206 1 66 20.122777 75.560000 757.092720 0.403620 0.000000
208 1 48 15.272187 38.580000 661.446480 0.719361 0.000000
210 1 54 17.434913 44.250000 706.739760 0.156454 0.000000
217 1 39402 7.346387 56.210000 458.754480 0.269222 0.000000
219 1 60 20.862324 49.910000 773.094720 0.356337 0.000000
221 1 1384224 7.215420 73.000000 454.639680 0.298609 0.000000
222 1 13184225 1.569919 73.000000 212.079840 0.260774 0.000000
223 1 72 1.709404 73.000000 221.284800 1.059922 0.000000
226 1 87 4.537072 73.000000 360.517440 0.158410 0.000000
228 1 79 12.370328 73.000000 595.304880 0.000000 0.000000
230 1 39308 8.801330 80.000000 2510.668080 0.100000 0.000000
231 1 C39.001 4.508799 73.000000 359.389680 0.380850 0.000000
232 1 C40.001 2.871337 73.000000 286.816800 0.389918 0.000000
238 1 89 7.639256 80.000000 2339.065680 0.200000 0.000000
24 1 295680 34.899669 68.630000 999.896400 0.000000 0.000000
240 1 C38.001 8.079301 80.000000 2376.403680 1.800000 0.000000
241 1 39351 3.043505 80.000000 1476.390240 7.500000 0.000000
242 1 R38 9.965788 80.000000 2591.440080 0.000000 0.000000
252 1 90 11.344003 80.000000 2850.367680 0.800000 0.000000
256 1 C37.001 25.018609 73.000000 853.958160 0.088821 0.000000
25685 1 36 26.537961 35.940000 871.941360 0.166692 0.000000
260 1 C36.001 2.589272 73.000000 278.008080 1.617149 0.000000
267 1 C35.001 23.493156 73.000000 822.380880 1.284683 0.000000
274 1 61 8.172305 58.810000 483.870000 0.565520 0.000000
283 1 63 27.630452 70.980000 894.435600 0.660860 0.000000
286 1 C53.003 6.900650 54.940000 444.611760 0.000000 0.000000
287 1 39352 5.293050 61.830000 389.412480 0.096027 0.000000
289 1 39228 4.548947 65.450000 361.005120 0.202664 0.000000
29 1 29 21.749447 68.130000 789.340560 0.000000 0.000000
290 1 39203 11.802964 64.560000 581.497440 0.024094 0.000000
294 1 39675 6.455452 63.990000 430.042320 1.783024 0.000000
295 1 39125 14.956681 55.440000 654.588480 0.000000 0.000000
296 1 62 18.278297 61.650000 723.625680 0.729062 0.000000
302 1 C53.002 29.385453 51.540000 917.508960 1.014698 0.000000
303 1 C53.001 47.878817 57.870000 1171.163520 0.000000 0.000000
304 1 C69.001 46.515912 67.090000 1153.149840 0.243724 0.000000
31 1 31 40.424733 63.590000 1076.157360 8.587521 0.000000
314 1 C70.001 21.509489 63.270000 784.189440 0.055726 0.000000
321 1 R53 1.404246 83.000000 200.558400 0.000000 0.000000
324 1 55 23.020814 59.480000 812.109120 0.089670 0.000000
348 1 13 10.684756 67.740000 553.272960 0.198090 0.000000
349 1 57 21.397279 59.200000 782.939760 2.241409 0.000000
350 1 c56.001 6.858987 63.720000 443.544960 0.179380 0.000000
354 1 C33.001 9.939364 73.000000 533.613360 0.000000 0.000000
35517 1 35 29.988761 66.860000 926.896800 0.392152 0.000000
356 1 C31.001 13.704163 73.000000 623.011200 0.000000 0.000000
358 1 C29.001 3.976882 73.000000 328.330560 0.000000 0.000000
370 1 98 9.855243 73.000000 531.357840 0.000000 0.000000
372 1 112 1.818055 73.000000 2282.190000 0.019454 0.000000
373 1 E110St_ParkAve. 6.411213 73.000000 428.579280 0.132482 0.000000
377 1 117 1.896530 73.000000 233.080560 0.289005 0.000000
378 1 954832 5.177026 73.000000 385.114800 0.018254 0.000000
379 1 94 7.273276 73.000000 456.468480 1.448596 0.000000
38 1 38 38.644783 72.890000 1052.169600 0.333321 0.000000
381 1 W120St_LenoxAve 1.840615 73.000000 229.636320 0.000000 0.000000
383 1 W119St_LenoxAve 2.100619 73.000000 245.303040 0.000000 0.000000
384 1 W118St_LenoxAve 1.946140 73.000000 236.128560 0.000000 0.000000
386 1 W117St_LenoxAve 2.462344 73.000000 265.602720 0.000000 0.000000
387 1 108 15.957550 73.000000 676.137840 0.000000 0.000000
388 1 W115St_LenoxAve 3.501414 73.000000 316.717680 0.240909 0.000000
394 1 W114St_LenoxAve 1.722132 73.000000 222.107760 0.569567 0.000000
39893 1 39893 5.437461 73.000000 367.832640 0.813541 0.000000
399 1 C58.001 6.711555 76.950000 426.689520 0.000000 0.000000
401 1 115 1.957287 73.000000 236.799120 0.431714 0.000000
404 1 116 2.028198 73.000000 241.035840 0.578108 0.000000
406 1 E112St_ParkAve. 9.383760 73.000000 518.495280 0.789741 0.000000
411 1 E110St_3rdAve 6.667846 73.000000 437.052720 0.000000 0.000000
412 1 107St_ParkAve 1.540231 73.000000 2100.590160 0.182277 0.000000
414 1 95269 3.229545 73.000000 3041.690640 0.019755 0.000000
420 1 C55.001 31.801020 61.230000 955.060320 0.000000 0.000000
439 1 97 26.181662 73.000000 868.070400 0.941304 0.000000
443 1 E106St_ParkAve 37.867138 73.000000 10415.442720 0.037265 0.000000
45 1 45 2.274416 84.110000 255.270000 0.674400 0.000000
452 1 R24 2.180313 73.000000 257.007360 0.000000 0.000000
453 1 R24 1.695732 73.000000 221.406720 0.000000 0.000000
456 1 C67.012 31.186843 47.020000 945.215280 0.000000 0.000000
457 1 C79.001 50.565755 31.250000 1107.521280 7.400995 0.000000
458 1 C67.013 58.472136 48.250000 1294.272240 0.871840 0.000000
462 1 C78.002 46.364456 29.040000 1130.503200 0.000000 0.000000
464 1 C67.010 40.320682 34.800000 1071.311040 0.939850 0.000000
466 1 C67.011 12.672378 45.580000 602.528640 0.961076 0.000000
468 1 C78.002 25.378503 29.140000 864.473760 0.000000 0.000000
469 1 02 67.082807 52.510000 1386.291360 0.087005 0.000000
470 1 C67.008 91.263132 40.670000 1616.933520 0.000000 0.000000
472 1 C67.009 17.404985 41.450000 706.130160 0.924385 0.000000
476 1 C77.002 22.901468 23.030000 988.435920 6.322795 0.000000
477 1 01 31.706576 40.250000 957.925440 0.086515 0.000000
486 1 03 2.877992 50.060000 287.152080 0.167401 0.000000
487 1 04 5.724044 58.170000 404.957280 0.122984 0.000000
488 1 C67.006 12.730960 63.750000 603.930720 0.325945 0.000000
491 1 326 36.087823 55.190000 1016.782320 0.073812 0.000000
495 1 307 21.586541 53.300000 786.384000 0.913452 0.000000
496 1 C67.005 6.618331 66.010000 435.437280 0.566947 0.000000
497 1 C76.001 50.921393 36.730000 1280.800080 9.681093 0.000000
499 1 C74.001 27.757763 47.940000 940.094640 1.351129 0.000000
501 1 C67.003 25.584240 60.610000 856.122240 0.501361 0.000000
504 1 C67.002 70.590469 56.040000 1424.757120 1.968315 0.000000
514 1 24 15.943556 66.340000 675.833040 3.133082 0.000000
516 1 24 38.459992 65.870000 1049.670240 3.133082 0.000000
520 1 20333 13.750266 37.790000 627.613680 1.087062 0.000000
524 1 15 16.125309 41.980000 679.673520 2.290655 0.000000
525 1 C66.001 35.334580 56.810000 1014.679200 12.000000 0.000000
536 1 C63.001 16.078376 53.950000 634.166880 4.830508 0.000000
578 1 135 16.018098 10.000000 691.743600 21.066827 0.000000
614513 1 295680 10.577918 73.710000 550.499280 0.000000 0.000000
624 1 101 9.732332 10.000000 528.035520 0.118998 0.000000
630 1 R24 1.490573 73.000000 209.519520 0.000000 0.000000
635 1 93 2.073157 73.000000 243.718080 0.257011 0.000000
638 1 99 2.682527 73.000000 277.215600 0.649724 0.000000
653 1 C14.001 2.552833 73.000000 277.794720 0.000000 0.000000
657 1 R11 3.019175 73.000000 275.904960 0.000000 0.000000
660 1 N717 1.224038 73.000000 187.269120 2.459697 0.000000
661 1 395241 1.045929 73.000000 173.095920 1.748394 0.000000
662 1 N711 3.190510 73.000000 302.300640 1.671166 0.000000
664 1 N709 1.549222 73.000000 210.677760 0.886132 0.000000
665 1 ADS31 1.426545 73.000000 201.442320 13.180000 0.000000
666 1 C02.001 41.660260 80.000000 1092.708000 2.981143 0.000000
682 1 96 5.271962 73.000000 385.511040 0.000000 0.000000
683 1 96 2.050886 73.000000 242.376960 0.000000 0.000000
684 1 100 31.471157 100.000000 1225.814160 0.212622 0.000000
686 1 Reg7.07 66.789750 100.000000 1785.762240 1.850139 0.000000
75 1 75 9.988498 73.000000 264.657840 0.477507 0.000000
Birch01 1 Birch01 1.618745 48.000000 71.781791 5.100000 0.000000
Birch02 1 Birch02 2.023431 3.000000 80.254483 5.700000 0.000000
Birch03 1 Birch03 4.451549 3.000000 119.036635 6.200000 0.000000
Birch04 1 Birch04 13.354647 0.000000 206.177499 9.900000 0.000000
Birch05 1 Birch05 46.538921 13.000000 384.886978 2.800000 0.000000
BnxDt 1 C54.001 2.037857 78.960000 241.614960 0.000000 0.000000
BnxFb 1 BnxFb 2.557981 77.960000 270.692880 1.900000 0.000000
BR08 1 C08.001 0.667203 73.000000 137.403840 0.000000 0.000000
BR09 1 C09.001 0.852071 73.000000 155.935680 0.000000 0.000000
BR12 1 C12.001 1.258871 73.000000 190.713360 0.000000 0.000000
BR13 1 C13.001 0.192646 73.000000 73.273920 0.000000 0.000000
BR17 1 C17.001 1.230998 73.000000 189.738000 0.000000 0.000000
BR18 1 C18.001 1.346743 73.000000 196.169280 0.000000 0.000000
BR21 1 C21.001 1.604958 73.000000 213.664800 0.261852 0.000000
BR26 1 C26.001 2.212213 73.000000 249.387360 0.000000 0.000000
BR27 1 C27.001 1.673156 73.000000 219.730320 0.000000 0.000000
BR30 1 C30.001 2.226650 73.000000 247.070880 0.000000 0.000000
BR32 1 C32.001 0.890755 73.000000 154.137360 0.000000 0.000000
BR64 1 C64.001 37.508810 55.710000 1004.742720 0.000000 0.000000
BR71 1 BR71.01 3.210558 72.980000 303.276000 1.927273 0.000000
BX Botanic gardens 1 C53.M13 21.504876 10.000000 784.890480 0.055618 0.000000
C20 1 R20cs 1.255818 73.000000 188.762640 0.000000 0.000000
C22 1 C22.001 1.701536 73.000000 220.583760 0.518053 0.000000
C23 1 C23.001 5.962918 73.000000 4129.369440 0.851457 0.000000
C28 1 C28.001 1.380144 73.000000 194.553840 0.000000 0.000000
C34 1 C34.001 3.144778 73.000000 271.546320 1.736111 0.000000
C43 1 C43.001 1.309274 73.000000 195.254880 0.000000 0.000000
C47 1 C47.001 4.284940 73.000000 350.977200 0.000000 0.000000
C48 1 C48.001 1.833511 73.000000 192.084960 0.000000 0.000000
C57 1 C57.001 6.444075 56.140000 430.712880 0.000000 0.000000
C60 1 C60.M08 14.944421 74.480000 654.314160 0.833226 0.000000
C73 1 C73.001 0.544551 69.290000 124.907040 0.000000 0.000000
claremont park 1 C62.004 16.071113 10.000000 678.515280 1.518659 0.000000
D1 1 D1 93.345341 20.000000 545.093983 0.000000 0.000000
D10 1 D10 53.587035 20.000000 413.004637 0.000000 0.000000
D11 1 D11 29.555176 20.000000 306.719820 0.000000 0.000000
D12 1 D12 0.684322 20.000000 46.671893 0.000000 0.000000
D13 1 D13 125.222157 20.000000 631.343414 0.000000 0.000000
D14 1 D14 18.097808 20.000000 240.014813 0.000000 0.000000
D15 1 D15 22.039295 20.000000 264.864595 0.000000 0.000000
D16 1 D16 2.555797 20.000000 90.196204 0.000000 0.000000
D17 1 WI-883 4.513041 20.000000 119.855979 0.000000 0.000000
D18 1 D18 2.941004 20.000000 96.754885 0.000000 0.000000
D19 1 D19 10.038918 20.000000 178.759244 0.000000 0.000000
D2 1 WIB--984 13.823231 20.000000 209.763465 0.000000 0.000000
D3 1 D3 4.878226 20.000000 124.610899 0.000000 0.000000
D4 1 WIB--950 9.201782 20.000000 171.143746 0.000000 0.000000
D5 1 WIB--951 7.263840 20.000000 152.057622 0.000000 0.000000
D6 1 WIB--982 11.152217 20.000000 188.410745 0.000000 0.000000
D7 1 WIB--936 10.995345 20.000000 187.080919 0.000000 0.000000
D8 1 WIB--08 81.892119 20.000000 510.559212 0.000000 0.000000
D9 1 D9 4.060131 20.000000 113.682890 0.000000 0.000000
Elm01 1 Elm01 4.451549 9.000000 119.036635 13.800000 0.000000
Elm02 1 Elm02 2.023431 6.000000 80.254483 4.800000 0.000000
Elm03 1 Elm03 2.832804 0.000000 94.958384 3.900000 0.000000
Elm04 1 Elm04 15.782764 0.000000 224.138572 12.600000 0.000000
Elm05 1 Elm05 16.187451 3.000000 226.993955 11.000000 0.000000
Maple Pond 1 Maple Pond 7.284353 6.000000 152.272174 9.600000 0.000000
Other_R50 1 WI50-050 11.159751 10.000000 564.763920 0.000000 0.000000
Other_r51 1 R51 5.656100 10.000000 416.478720 0.000000 0.000000
Other_R53 1 24 21.129884 10.000000 848.014560 3.100000 0.000000
PLAY_GRD 1 24 7.373393 10.000000 459.607920 3.133082 0.000000
S1 1 WI-610 0.496968 20.000000 39.773093 0.000000 0.000000
S2 1 WI-614 8.659618 20.000000 166.025364 0.000000 0.000000
S3 1 WI-887 1.631575 20.000000 216.194640 0.000000 0.000000
S4 1 WI-609 0.841983 20.000000 51.769814 0.000000 0.000000
StMaryPk 1 39203 16.824294 10.000000 688.482240 0.024094 0.000000
Sycamore01 1 Sycamore01 10.117157 12.000000 179.454479 9.000000 0.000000
Sycamore02 1 Sycamore02 0.809373 0.000000 50.757391 6.700000 0.000000
Sycamore03 1 Sycamore03 4.046863 0.000000 113.496978 10.500000 0.000000
VCLLB01 1 VCLLB01 14.568706 2.000000 215.345374 0.800000 0.000000
VCLLB02 1 VCLLB02 6.474980 11.000000 143.563583 4.300000 0.000000
VCLLB03 1 VCLLB03 8.903098 4.000000 168.343223 5.200000 0.000000
VCLLB04 1 VCLLB04 2.023431 0.000000 80.254483 11.600000 0.000000
VCLLB05 1 VCLLB05 0.809373 0.000000 50.757391 2.900000 0.000000
VCLLB06 1 VCLLB06 1.214059 0.000000 62.164855 10.200000 0.000000
VCLLB07 1 VCLLB07 0.809373 0.000000 50.757391 29.600000 0.000000
VCLLB08 1 VCLLB08 8.903098 16.000000 168.343223 10.200000 0.000000
VCLLB09 1 VCLLB09 28.732725 12.000000 302.422063 3.900000 0.000000
VCLLB10 1 VCLLB10 1.214059 0.000000 62.164855 12.100000 0.000000
VCLLB11 1 VCLLB11 6.879667 7.000000 147.981954 5.300000 0.000000
VCLLB12 1 VCLLB12 8.093725 0.000000 160.508965 3.900000 0.000000
VCLLB13 1 VCLLB13 0.809373 0.000000 50.757391 6.800000 0.000000
VCLLB14 1 VCLLB14 1.214059 5.000000 62.164855 1.800000 0.000000
VCLLB15 1 VCLLB15 4.046863 0.000000 113.496978 3.000000 0.000000
VCLLB16 1 VCLLB16 8.498412 0.000000 164.472746 3.100000 0.000000
VCLLB17 1 VCLLB17 2.023431 9.000000 80.254483 4.300000 0.000000
VCLLB18 1 VCLLB18 0.404686 0.000000 35.890896 4.300000 0.000000
VCLLB19 1 VCLLB19 1.618745 0.000000 71.781791 4.300000 0.000000
VCLLB20 1 VCLLB20 2.428118 0.000000 87.914381 4.300000 0.000000
VCLUB01 1 VCLUB01 37.635823 2.000000 346.119264 7.100000 0.000000
VCLUB02 1 VCLUB02 36.017078 9.000000 338.594033 4.000000 0.000000
VCLUB03 1 VCLUB03 6.070294 0.000000 139.004841 8.900000 0.000000
VCLUB04 1 VCLUB04 13.354647 5.000000 206.177499 0.300000 0.000000
VCLUB05 1 VCLUB05 4.856235 0.000000 124.329710 5.600000 0.000000
VCLUB06 1 VCLUB06 5.260921 4.000000 129.406465 6.100000 0.000000
VCLUB07 1 VCLUB07 1.214059 0.000000 62.164855 2.400000 0.000000
VCLUBN01 1 VCLUBN01 10.521843 7.000000 183.008378 13.000000 0.000000
VCLUBN02 1 VCLUBN02 9.307784 1.000000 172.126689 2.900000 0.000000
VCLUBN03 1 VCLUBN03 14.568706 2.000000 215.345374 7.900000 0.000000
VCLUBN04 1 VCLUBN04 14.568706 8.000000 215.345374 9.500000 0.000000
Westchester1 1 Westchester01 352.886425 17.500000 1059.845450 0.200000 0.000000
Westchester2 1 Westchester02 71.224783 20.500000 476.146538 0.200000 0.000000
Westchester3 1 Westchester03 196.272839 31.300000 790.414987 0.200000 0.000000
WI-R53 1 C53.011 12.148578 10.000000 196.647205 0.000000 0.000000
[SUBAREAS]
; Subcatch Imperv_N Perv_N Imperv_S Perv_S PctZero RouteTo
000 0.050000 0.030000 0.253999 2.540000 0.000000 OUTLET
001 0.050000 0.030000 0.253999 2.540000 0.000000 OUTLET
002 0.050000 0.030000 0.253999 2.540000 0.000000 OUTLET
003 0.050000 0.030000 0.253999 2.540000 0.000000 OUTLET
004 0.050000 0.030000 0.253999 2.540000 0.000000 OUTLET
010 0.015000 0.030000 0.254000 2.540000 0.000000 OUTLET
013 0.015000 0.030000 0.254000 2.540000 0.000000 OUTLET
015 0.015000 0.030000 0.254000 2.540000 0.000000 OUTLET
020 0.050000 0.030000 0.253999 2.540000 0.000000 OUTLET
021 0.050000 0.030000 0.253999 2.540000 0.000000 OUTLET
022 0.050000 0.030000 0.253999 2.540000 0.000000 OUTLET
023 0.050000 0.030000 0.253999 2.540000 0.000000 OUTLET
024 0.050000 0.030000 0.253999 2.540000 0.000000 OUTLET
025 0.050000 0.030000 0.253999 2.540000 0.000000 OUTLET
026 0.050000 0.030000 0.253999 2.540000 0.000000 OUTLET
027 0.050000 0.030000 0.253999 2.540000 0.000000 OUTLET
028 0.050000 0.030000 0.253999 2.540000 0.000000 OUTLET
030 0.050000 0.030000 0.253999 2.540000 0.000000 OUTLET
031 0.050000 0.030000 0.253999 2.540000 0.000000 OUTLET
032 0.050000 0.030000 0.253999 2.540000 0.000000 OUTLET
035 0.050000 0.030000 0.253999 2.540000 0.000000 OUTLET
038 0.050000 0.030000 0.253999 2.540000 0.000000 OUTLET
040 0.015000 0.030000 0.254000 2.540000 0.000000 OUTLET
042 0.050000 0.030000 0.253999 2.540000 0.000000 OUTLET
045 0.050000 0.030000 0.253999 2.540000 0.000000 OUTLET
046 0.050000 0.030000 0.253999 2.540000 0.000000 OUTLET
047 0.050000 0.030000 0.253999 2.540000 0.000000 OUTLET
048 0.050000 0.030000 0.253999 2.540000 0.000000 OUTLET
049 0.015000 0.030000 0.254000 2.540000 0.000000 OUTLET
05 0.050000 0.030000 0.253999 2.540000 0.000000 OUTLET
050 0.015000 0.030000 0.254000 2.540000 0.000000 OUTLET
051 0.050000 0.030000 0.253999 2.540000 0.000000 OUTLET
052 0.050000 0.030000 0.253999 2.540000 0.000000 OUTLET
054 0.050000 0.030000 0.253999 2.540000 0.000000 OUTLET
060 0.050000 0.030000 0.253999 2.540000 0.000000 OUTLET
061 0.050000 0.030000 0.253999 2.540000 0.000000 OUTLET
062 0.050000 0.030000 0.253999 2.540000 0.000000 OUTLET
063 0.050000 0.030000 0.253999 2.540000 0.000000 OUTLET
064 0.050000 0.030000 0.253999 2.540000 0.000000 OUTLET
065 0.050000 0.030000 0.253999 2.540000 0.000000 OUTLET
066 0.050000 0.030000 0.253999 2.540000 0.000000 OUTLET
067 0.050000 0.030000 0.253999 2.540000 0.000000 OUTLET
068 0.050000 0.030000 0.253999 2.540000 0.000000 OUTLET
069 0.050000 0.030000 0.253999 2.540000 0.000000 OUTLET
070 0.050000 0.030000 0.253999 2.540000 0.000000 OUTLET
071 0.050000 0.030000 0.253999 2.540000 0.000000 OUTLET
073 0.050000 0.030000 0.253999 2.540000 0.000000 OUTLET
076 0.050000 0.030000 0.253999 2.540000 0.000000 OUTLET
077 0.050000 0.030000 0.253999 2.540000 0.000000 OUTLET
078 0.050000 0.030000 0.253999 2.540000 0.000000 OUTLET
080 0.050000 0.030000 0.253999 2.540000 0.000000 OUTLET
081 0.050000 0.030000 0.253999 2.540000 0.000000 OUTLET
082 0.050000 0.030000 0.253999 2.540000 0.000000 OUTLET
084 0.050000 0.030000 0.253999 2.540000 0.000000 OUTLET
085 0.050000 0.030000 0.253999 2.540000 0.000000 OUTLET
087 0.050000 0.030000 0.253999 2.540000 0.000000 OUTLET
088 0.050000 0.030000 0.253999 2.540000 0.000000 OUTLET
089 0.050000 0.030000 0.253999 2.540000 0.000000 OUTLET
090 0.050000 0.030000 0.253999 2.540000 0.000000 OUTLET
091 0.050000 0.030000 0.253999 2.540000 0.000000 OUTLET
094 0.050000 0.030000 0.253999 2.540000 0.000000 OUTLET
095 0.050000 0.030000 0.253999 2.540000 0.000000 OUTLET
097 0.050000 0.030000 0.253999 2.540000 0.000000 OUTLET
098 0.050000 0.030000 0.253999 2.540000 0.000000 OUTLET
099 0.050000 0.030000 0.253999 2.540000 0.000000 OUTLET
100 0.050000 0.030000 0.253999 2.540000 0.000000 OUTLET
102 0.050000 0.030000 0.253999 2.540000 0.000000 OUTLET
10201 0.050000 0.030000 0.253999 2.540000 0.000000 OUTLET
104 0.050000 0.030000 0.253999 2.540000 0.000000 OUTLET
106 0.050000 0.030000 0.253999 2.540000 0.000000 OUTLET
107 0.050000 0.030000 0.253999 2.540000 0.000000 OUTLET
109 0.050000 0.030000 0.253999 2.540000 0.000000 OUTLET
112 0.050000 0.030000 0.253999 2.540000 0.000000 OUTLET
115 0.050000 0.030000 0.253999 2.540000 0.000000 OUTLET
119 0.050000 0.030000 0.253999 2.540000 0.000000 OUTLET
120 0.050000 0.030000 0.253999 2.540000 0.000000 OUTLET
121 0.050000 0.030000 0.253999 2.540000 0.000000 OUTLET
122 0.050000 0.030000 0.253999 2.540000 0.000000 OUTLET
123 0.050000 0.030000 0.253999 2.540000 0.000000 OUTLET
125 0.050000 0.030000 0.253999 2.540000 0.000000 OUTLET
127 0.050000 0.030000 0.253999 2.540000 0.000000 OUTLET
129 0.050000 0.030000 0.253999 2.540000 0.000000 OUTLET
130 0.050000 0.030000 0.253999 2.540000 0.000000 OUTLET
131 0.050000 0.030000 0.253999 2.540000 0.000000 OUTLET
133 0.050000 0.030000 0.253999 2.540000 0.000000 OUTLET
134 0.050000 0.030000 0.253999 2.540000 0.000000 OUTLET
135 0.050000 0.030000 0.253999 2.540000 0.000000 OUTLET
136 0.050000 0.030000 0.253999 2.540000 0.000000 OUTLET
138 0.050000 0.030000 0.253999 2.540000 0.000000 OUTLET
139 0.050000 0.030000 0.253999 2.540000 0.000000 OUTLET
148 0.050000 0.030000 0.253999 2.540000 0.000000 OUTLET
15 0.050000 0.030000 0.253999 2.540000 0.000000 OUTLET
150 0.050000 0.030000 0.253999 2.540000 0.000000 OUTLET
151 0.050000 0.030000 0.253999 2.540000 0.000000 OUTLET
153 0.050000 0.030000 0.253999 2.540000 0.000000 OUTLET
156 0.050000 0.030000 0.253999 2.540000 0.000000 OUTLET
158 0.050000 0.030000 0.253999 2.540000 0.000000 OUTLET
162 0.050000 0.030000 0.253999 2.540000 0.000000 OUTLET
163 0.050000 0.030000 0.253999 2.540000 0.000000 OUTLET
164 0.050000 0.030000 0.253999 2.540000 0.000000 OUTLET
165 0.050000 0.030000 0.253999 2.540000 0.000000 OUTLET
167 0.050000 0.030000 0.253999 2.540000 0.000000 OUTLET
168 0.050000 0.030000 0.253999 2.540000 0.000000 OUTLET
169 0.050000 0.030000 0.253999 2.540000 0.000000 OUTLET
171 0.050000 0.030000 0.253999 2.540000 0.000000 OUTLET
173 0.050000 0.030000 0.253999 2.540000 0.000000 OUTLET
178 0.050000 0.030000 0.253999 2.540000 0.000000 OUTLET
179 0.050000 0.030000 0.253999 2.540000 0.000000 OUTLET
180 0.050000 0.030000 0.253999 2.540000 0.000000 OUTLET
183 0.050000 0.030000 0.253999 2.540000 0.000000 OUTLET
18523 0.050000 0.030000 0.253999 2.540000 0.000000 OUTLET
186 0.050000 0.030000 0.253999 2.540000 0.000000 OUTLET
187 0.050000 0.030000 0.253999 2.540000 0.000000 OUTLET
190 0.050000 0.030000 0.253999 2.540000 0.000000 OUTLET
191 0.050000 0.030000 0.253999 2.540000 0.000000 OUTLET
193 0.050000 0.030000 0.253999 2.540000 0.000000 OUTLET
195 0.050000 0.030000 0.253999 2.540000 0.000000 OUTLET
196 0.050000 0.030000 0.253999 2.540000 0.000000 OUTLET
202 0.050000 0.030000 0.253999 2.540000 0.000000 OUTLET
203 0.050000 0.030000 0.253999 2.540000 0.000000 OUTLET
204 0.050000 0.030000 0.253999 2.540000 0.000000 OUTLET
205 0.050000 0.030000 0.253999 2.540000 0.000000 OUTLET
206 0.050000 0.030000 0.253999 2.540000 0.000000 OUTLET
208 0.050000 0.030000 0.253999 2.540000 0.000000 OUTLET
210 0.050000 0.030000 0.253999 2.540000 0.000000 OUTLET
217 0.050000 0.030000 0.253999 2.540000 0.000000 OUTLET
219 0.050000 0.030000 0.253999 2.540000 0.000000 OUTLET
221 0.050000 0.030000 0.253999 2.540000 0.000000 OUTLET
222 0.050000 0.030000 0.253999 2.540000 0.000000 OUTLET
223 0.050000 0.030000 0.253999 2.540000 0.000000 OUTLET
226 0.050000 0.030000 0.253999 2.540000 0.000000 OUTLET
228 0.050000 0.030000 0.253999 2.540000 0.000000 OUTLET
230 0.015000 0.030000 0.254000 2.540000 0.000000 OUTLET
231 0.050000 0.030000 0.253999 2.540000 0.000000 OUTLET
232 0.050000 0.030000 0.253999 2.540000 0.000000 OUTLET
238 0.015000 0.030000 0.254000 2.540000 0.000000 OUTLET
24 0.050000 0.030000 0.253999 2.540000 0.000000 OUTLET
240 0.015000 0.030000 0.254000 2.540000 0.000000 OUTLET
241 0.015000 0.030000 0.254000 2.540000 0.000000 OUTLET
242 0.015000 0.030000 0.254000 2.540000 0.000000 OUTLET
252 0.015000 0.030000 0.254000 2.540000 0.000000 OUTLET