; SWMM5 export of network WQ-SWMM from InfoWorks 9.5.1.19011
; Entire Network
[TITLE]

[OPTIONS]
FLOW_UNITS GPM
INFILTRATION HORTON
ALLOW_PONDING YES
[SUBCATCHMENTS]
; Name Raingage Outlet Area %Imperv Width Slope Clength
YSHV1130160 1 YSHV1130160 0.375199 81.360000 72.127292 0.807340 0.000000
YSHT1140010 1 YSHT1140010 0.732145 72.614555 100.755243 0.081139 0.000000
YSHV1130159 1 YSHV1130159 0.905787 67.263844 112.068121 0.161744 0.000000
YSHV1130158 1 YSHV1130158 0.789666 68.130489 104.638340 0.240256 0.000000
YSHT1140011 1 YSHT1140011 1.723694 67.375072 154.596317 0.280137 0.000000
YSHV1130157 1 YSHV1130157 0.538651 72.550459 86.421707 0.065959 0.000000
YSHV1130156 1 YSHV1130156 0.407026 76.788321 75.124211 0.220810 0.000000
YSHT1410199 1 YSHT1410199 0.594470 60.000000 90.789121 0.550325 0.000000
YSHT1410205 1 YSHT1410205 0.840812 60.000000 107.973834 0.619283 0.000000
YSHV1410225 1 YSHV1410225 0.220371 60.000000 55.277246 0.471800 0.000000
YSHT1140012 1 YSHT1140012 0.431345 84.827586 77.335907 0.207066 0.000000
YSHT1410202 1 YSHT1410202 0.318265 60.000000 66.429925 3.106685 0.000000
YSHV1410228 1 YSHV1410228 0.958128 60.000000 115.260574 2.872215 0.000000
YSHT1430267 1 YSHT1430267 0.196775 60.000000 52.234110 0.000000 0.000000
YSHT1430268 1 YSHT1430268 0.239787 60.000000 57.660922 0.000000 0.000000
YSHV1130155 1 YSHV1130155 0.306984 82.476190 65.241888 0.000000 0.000000
YSHT1410210 1 YSHT1410210 0.923388 60.000000 113.151738 0.000000 0.000000
YSHT1430269 1 YSHT1430269 0.162072 60.000000 47.404856 0.000000 0.000000
YSHT1430270 1 YSHT1430270 0.187451 60.000000 50.981531 0.442063 0.000000
YSHT1430273 1 YSHT1430273 0.204476 60.000000 53.246334 0.653869 0.000000
YSHV1130154 1 YSHV1130154 0.333836 85.309735 68.035504 0.548106 0.000000
YSHT1410204 1 YSHT1410204 0.194765 60.000000 51.966655 0.000000 0.000000
YSHT1430266 1 YSHT1430266 0.030024 60.000000 20.403535 0.000000 0.000000
YSHT1430265 1 YSHT1430265 0.120706 60.000000 40.910439 0.000000 0.000000
YSHV1410229 1 YSHV1410229 0.844331 66.616103 108.199511 0.410032 0.000000
YSHT1430263 1 YSHT1430263 0.021553 60.000000 17.287188 0.000000 0.000000
YSHT1430274 1 YSHT1430274 0.268175 60.223048 60.978667 0.328779 0.000000
YSHT1410201 1 YSHT1410201 0.091926 60.000000 35.701628 0.590363 0.000000
YSHT1430264 1 YSHT1430264 0.242596 60.000000 57.997674 0.000000 0.000000
YSHT1410203 1 YSHT1410203 0.163915 60.000000 47.673627 0.000000 0.000000
YSHT1430275 1 YSHT1430275 0.274097 60.107527 61.648250 0.807775 0.000000
YSHT1410209 1 YSHT1410209 0.172119 60.000000 48.852167 0.000000 0.000000
YSHT1140013 1 YSHT1140013 0.299240 86.831683 64.413742 0.225263 0.000000
YSHT1430284 1 YSHT1430284 0.489581 60.000000 82.391249 0.000000 0.000000
YSHT1430276 1 YSHT1430276 0.248740 71.666667 58.727589 3.703642 0.000000
YSHV1130395 1 YSHV1130395 0.360650 90.000000 70.715088 0.621752 0.000000
YSHT1410208 1 YSHT1410208 0.102604 60.000000 37.718159 0.000000 0.000000
YSHT1410206 1 YSHT1410206 0.058295 60.000000 28.430567 0.426390 0.000000
YSHT1430298 1 YSHT1430298 0.543866 60.000000 86.839015 0.154346 0.000000
YSHV1410227 1 YSHV1410227 0.190671 60.310881 51.417587 0.251216 0.000000
YSHT1430292 1 YSHT1430292 0.544820 60.000000 86.915187 0.471619 0.000000
YSHT1430283 1 YSHT1430283 0.275257 60.000000 61.778613 0.000000 0.000000
YSHT1410207 1 YSHT1410207 0.041175 60.000000 23.893698 0.363401 0.000000
YSHT1430299 1 YSHT1430299 0.095778 60.000000 36.441935 0.168995 0.000000
YSHT1410213 1 YSHT1410213 0.626216 60.000000 93.181788 0.000000 0.000000
YSHT1410211 1 YSHT1410211 0.097907 60.000000 36.844744 0.533042 0.000000
YSHT1430277 1 YSHT1430277 0.076966 60.000000 32.667711 0.466482 0.000000
YSHT1410212 1 YSHT1410212 0.087993 60.000000 34.929512 0.000000 0.000000
YSHV1410226 1 YSHV1410226 0.086705 60.000000 34.673024 2.378645 0.000000
YSHT1430282 1 YSHT1430282 0.101643 60.000000 37.541105 0.000000 0.000000
YSHT1430281 1 YSHT1430281 0.069813 60.000000 31.112610 3.323098 0.000000
YSHT1410221 1 YSHT1410221 0.722158 60.000000 100.065660 0.931482 0.000000
YSHT1430278 1 YSHT1430278 0.077901 64.814815 32.865525 0.917374 0.000000
YSHT1410222 1 YSHT1410222 1.021957 60.000000 119.037890 0.681376 0.000000
YSHT1410223 1 YSHT1410223 0.661500 60.000000 95.770963 0.305286 0.000000
YSBT6200130 1 YSBT6200130 0.127116 88.292683 41.982547 0.000000 0.000000
YSHT1410224 1 YSHT1410224 0.470256 64.905660 80.748844 2.347875 0.000000
YSHT1331679 1 YSHT1331679 0.174118 73.448276 49.135015 0.054854 0.000000
YSHT1430300 1 YSHT1430300 0.199203 60.000000 52.555383 0.000000 0.000000
YSHV1130153 1 YSHV1130153 0.279643 87.031802 62.268831 0.755551 0.000000
YSHT1430291 1 YSHT1430291 0.272400 60.000000 61.457159 0.000000 0.000000
YSHT1410214 1 YSHT1410214 0.054499 60.000000 27.489366 0.387629 0.000000
YSHT1430297 1 YSHT1430297 0.591133 60.000000 90.534002 0.360306 0.000000
YSHT1410220 1 YSHT1410220 0.503536 60.000000 83.557300 0.484133 0.000000
YSHT1410216 1 YSHT1410216 0.174490 60.000000 49.187417 0.000000 0.000000
YSHT1331678 1 YSHT1331678 0.110527 67.105263 39.147500 0.000000 0.000000
YSBT6200100 1 YSBT6200100 0.130709 87.089552 42.571713 0.000000 0.000000
YSHT1430280 1 YSHT1430280 0.034826 60.000000 21.974528 0.000000 0.000000
YSHT1430279 1 YSHT1430279 0.108975 72.162162 38.871564 0.000000 0.000000
YSHT1430290 1 YSHT1430290 0.096796 60.000000 36.635202 0.000000 0.000000
YSHT1140014 1 YSHT1140014 1.578521 67.664783 147.942902 0.145848 0.000000
YSHT1430301 1 YSHT1430301 0.119174 60.000000 40.649887 0.500560 0.000000
YSHT1410215 1 YSHT1410215 0.064826 60.000000 29.980919 0.230917 0.000000
YSHT1430302 1 YSHT1430302 0.396021 60.000000 74.101656 1.342375 0.000000
YSHT1430286 1 YSHT1430286 0.068560 60.000000 30.832224 2.821053 0.000000
YSHT1331677 1 YSHT1331677 0.070556 60.000000 31.277687 0.000000 0.000000
YSHT1430289 1 YSHT1430289 0.044431 60.000000 24.820562 0.000000 0.000000
YSHT1331680 1 YSHT1331680 0.064886 60.468750 29.994653 0.000000 0.000000
YSHT1410218 1 YSHT1410218 0.136762 60.000000 43.546381 0.642439 0.000000
YSBT6201201 1 YSBT6201201 0.039944 60.000000 23.533802 0.328134 0.000000
YSBT6200131 1 YSBT6200131 0.153175 89.806452 46.085301 0.539742 0.000000
YSHT1331687 1 YSHT1331687 0.070452 66.250000 31.254793 0.215867 0.000000
YSHT1331688 1 YSHT1331688 0.119995 67.500000 40.789684 0.000000 0.000000
YSHT1430296 1 YSHT1430296 0.272387 60.000000 61.455656 0.175719 0.000000
YSBT6200101 1 YSBT6200101 0.155785 89.808917 46.476304 0.528594 0.000000
YSHT1331676 1 YSHT1331676 0.111534 60.000000 39.325385 0.124466 0.000000
YSHT1410219 1 YSHT1410219 0.114815 60.000000 39.899607 0.596767 0.000000
YSHV1130152 1 YSHV1130152 0.269726 86.801471 61.154766 0.375031 0.000000
YSHT1430288 1 YSHT1430288 0.084406 60.000000 34.210165 0.000000 0.000000
YSHT1430287 1 YSHT1430287 0.126628 71.190476 41.901888 0.000000 0.000000
YSHT1430294 1 YSHT1430294 0.121238 60.000000 41.000431 2.254030 0.000000
YSHT1331675 1 YSHT1331675 0.103013 60.000000 37.793246 0.000000 0.000000
YSHT1331689 1 YSHT1331689 0.105273 61.962617 38.205610 0.269162 0.000000
YSHT1330894 1 YSHT1330894 0.258812 60.000000 59.904785 0.982752 0.000000
YSHT1331674 1 YSHT1331674 0.053248 60.000000 27.171928 0.000000 0.000000
YSHT1330893 1 YSHT1330893 0.440705 60.000000 78.170550 0.081008 0.000000
YSHT1331673 1 YSHT1331673 0.117503 62.033898 40.363915 0.000000 0.000000
YSHT1331672 1 YSHT1331672 0.120137 61.463415 40.813798 0.077461 0.000000
YSHT1330892 1 YSHT1330892 0.119090 60.000000 40.635574 0.085491 0.000000
YSHT1330895 1 YSHT1330895 0.075368 60.000000 32.326803 0.904027 0.000000
YSBT6201200 1 YSBT6201200 0.028533 61.034483 19.890392 6.872693 0.000000
YSHT1430293 1 YSHT1430293 0.210358 71.915888 54.006783 0.000000 0.000000
YSHT1331690 1 YSHT1331690 0.106656 60.000000 38.455734 0.000000 0.000000
YSHT1330896 1 YSHT1330896 0.174799 60.000000 49.231037 0.299648 0.000000
YSHT1330891 1 YSHT1330891 0.231167 60.000000 56.615013 1.372637 0.000000
YSHT1430295 1 YSHT1430295 0.114411 60.000000 39.829386 0.036192 0.000000
YSHT1331671 1 YSHT1331671 0.078302 60.000000 32.949919 0.000000 0.000000
YSHT1331691 1 YSHT1331691 0.022734 60.000000 17.754522 0.334984 0.000000
YSHV1130151 1 YSHV1130151 0.283980 57.272727 62.749891 0.286286 0.000000
YSHT1330897 1 YSHT1330897 0.269443 60.000000 61.122719 0.350930 0.000000
YSHT1331686 1 YSHT1331686 0.161750 60.000000 47.357726 0.000000 0.000000
YSHT1430304 1 YSHT1430304 0.121610 62.195122 41.063282 1.016534 0.000000
YSHT1331685 1 YSHT1331685 0.339565 65.706052 68.616781 0.000000 0.000000
YSHT1330890 1 YSHT1330890 0.320966 60.000000 66.711155 0.142780 0.000000
YSHT1331670 1 YSHT1331670 0.105182 43.018868 38.189210 0.000000 0.000000
YSHT1330898 1 YSHT1330898 0.260756 60.000000 60.129276 0.174215 0.000000
YSHT1331684 1 YSHT1331684 0.280136 66.654930 62.323718 0.044008 0.000000
YSHT1331669 1 YSHT1331669 0.107647 42.181818 38.634041 0.000000 0.000000
YSBT6200027 1 YSBT6200027 0.698255 70.535966 98.395689 0.000000 0.000000
YSHT1330925 1 YSHT1330925 0.322691 60.000000 66.890229 1.426857 0.000000
YSHT1430305 1 YSHT1430305 0.159283 62.484076 46.995238 1.035742 0.000000
YSHT1430307 1 YSHT1430307 0.119742 60.000000 40.746675 5.680838 0.000000
YSHT1331668 1 YSHT1331668 0.224831 43.125000 55.833746 0.048491 0.000000
YSBT6200132 1 YSBT6200132 0.176565 86.885246 49.479095 0.000000 0.000000
YSHT1331667 1 YSHT1331667 0.205798 43.833333 53.418300 0.215517 0.000000
YSBT6200102 1 YSBT6200102 0.261279 85.375940 60.189596 0.000000 0.000000
YSHT1331666 1 YSHT1331666 0.182509 46.189189 50.305031 0.000000 0.000000
YSHT1330924 1 YSHT1330924 0.332197 60.000000 67.868254 1.415452 0.000000
YSHT1331665 1 YSHT1331665 0.167380 46.458333 48.174958 0.000000 0.000000
YSHT1331683 1 YSHT1331683 0.111091 62.631579 39.247162 0.210727 0.000000
YSHT1330902 1 YSHT1330902 0.416432 60.000000 75.987268 0.560879 0.000000
YSHT1330926 1 YSHT1330926 0.573683 60.000000 89.187689 0.617541 0.000000
YSHT1330920 1 YSHT1330920 0.463936 60.000000 80.204369 3.508089 0.000000
YSHT1331664 1 YSHT1331664 0.179270 46.346154 49.856640 0.000000 0.000000
YSHT1330899 1 YSHT1330899 0.094882 60.000000 36.271164 0.078133 0.000000
YSHT1430306 1 YSHT1430306 0.183117 77.445652 50.388660 3.136460 0.000000
YSHT1331682 1 YSHT1331682 0.121031 60.000000 40.965421 0.000000 0.000000
YSHT1330921 1 YSHT1330921 0.066183 60.000000 30.293042 0.990184 0.000000
YSHT1331663 1 YSHT1331663 0.196635 44.444444 52.215558 0.000000 0.000000
YSHT1330927 1 YSHT1330927 0.904595 60.000000 111.994316 2.777738 0.000000
YSBT6201112 1 YSBT6201112 1.372858 60.409777 137.969099 7.810432 0.000000
YSHT1330903 1 YSHT1330903 0.171905 60.000000 48.821677 0.091994 0.000000
YSHT1331662 1 YSHT1331662 0.176528 47.486034 49.473928 0.110885 0.000000
YSHT1331681 1 YSHT1331681 0.517642 60.000000 84.719576 0.000000 0.000000
YSBT6200028 1 YSBT6200028 0.121240 88.536585 41.000691 0.000000 0.000000
YSHT1331661 1 YSHT1331661 0.387474 48.123393 73.297650 0.000000 0.000000
YSHT1330906 1 YSHT1330906 0.413845 60.000000 75.750888 0.097578 0.000000
YSHT1330904 1 YSHT1330904 0.218643 60.000000 55.060098 0.039551 0.000000
YSHT1330923 1 YSHT1330923 0.215646 60.000000 54.681450 1.643056 0.000000
YSHT1330900 1 YSHT1330900 0.115660 64.576271 40.046135 1.247322 0.000000
YSHT1330922 1 YSHT1330922 0.244856 60.000000 58.267277 0.000000 0.000000
YSHT1330901 1 YSHT1330901 0.093196 60.000000 35.947472 0.631397 0.000000
YSBT6200073 1 YSBT6200073 0.345827 74.783862 69.246596 0.657591 0.000000
YSHT1331660 1 YSHT1331660 0.723630 54.644809 100.167620 0.030209 0.000000
YSHT1330928 1 YSHT1330928 0.483806 60.000000 81.903911 0.833689 0.000000
YSBT6200103 1 YSBT6200103 0.289853 88.668942 63.395381 0.100845 0.000000
YSBT6200133 1 YSBT6200133 0.168485 89.647059 48.333605 0.124525 0.000000
YSBT6201203 1 YSBT6201203 0.046674 60.000000 25.439304 6.646741 0.000000
YSBT6201202 1 YSBT6201202 1.784620 60.166021 157.304755 0.000000 0.000000
YSHT1330907 1 YSHT1330907 0.108579 60.000000 38.800999 0.000000 0.000000
YSHT1330905 1 YSHT1330905 0.066449 66.818182 30.353748 0.239793 0.000000
YSHT1330908 1 YSHT1330908 0.114546 60.000000 39.852889 0.000000 0.000000
YSHT1330913 1 YSHT1330913 0.048360 65.869565 25.894847 0.210868 0.000000
YSHT1330914 1 YSHT1330914 0.464834 60.000000 80.281992 0.614497 0.000000
YSBT6200030 1 YSBT6200030 0.300568 88.112583 64.556543 0.000000 0.000000
YSHT1330909 1 YSHT1330909 0.172836 60.000000 48.953695 0.038582 0.000000
YSHT1330912 1 YSHT1330912 0.127763 76.363636 42.089348 0.134700 0.000000
YSHT1330911 1 YSHT1330911 0.193915 74.000000 51.853079 0.091305 0.000000
YSHT1330929 1 YSHT1330929 0.233735 60.000000 56.928632 0.074817 0.000000
YSHT1330910 1 YSHT1330910 0.154235 66.513158 46.244557 0.053765 0.000000
YSHT1330915 1 YSHT1330915 0.118181 60.000000 40.480250 0.085147 0.000000
YSHT1330947 1 YSHT1330947 0.544978 60.000000 86.927760 0.246987 0.000000
YSHT1330931 1 YSHT1330931 0.234167 60.000000 56.981254 1.332168 0.000000
YSHT1330916 1 YSHT1330916 0.116325 60.000000 40.161123 0.000000 0.000000
YSHT1330930 1 YSHT1330930 0.512876 60.000000 84.328656 0.347478 0.000000
YSHT1330917 1 YSHT1330917 0.170141 60.000000 48.570621 0.078477 0.000000
YSHT1330919 1 YSHT1330919 0.130116 60.000000 42.475147 0.129423 0.000000
YSBT6200104 1 YSBT6200104 2.004487 64.477833 166.713462 0.000000 0.000000
YSBT6200034 1 YSBT6200034 0.350644 82.100840 69.727227 0.140633 0.000000
YSBT6200135 1 YSBT6200135 0.173661 86.966292 49.070464 0.000000 0.000000
YSHT1330948 1 YSHT1330948 0.111321 60.000000 39.287706 0.109574 0.000000
YSHT1330918 1 YSHT1330918 0.203701 71.414634 53.145429 0.100940 0.000000
YSHT1330932 1 YSHT1330932 0.059240 60.000000 28.659976 0.000000 0.000000
YSHT1330949 1 YSHT1330949 0.112689 60.000000 39.528500 0.000000 0.000000
YSHT1330951 1 YSHT1330951 0.368999 60.000000 71.528900 0.320501 0.000000
YSHT1330933 1 YSHT1330933 0.133165 63.358209 42.969899 0.029321 0.000000
YSHT1330950 1 YSHT1330950 0.173923 60.000000 49.107432 0.039304 0.000000
YSHT1330946 1 YSHT1330946 0.270503 74.558824 61.242802 1.107478 0.000000
YSHT1330934 1 YSHT1330934 0.272143 70.729927 61.428164 0.087596 0.000000
YSHT1330935 1 YSHT1330935 0.314450 66.761905 66.030580 0.125751 0.000000
YSHT1330952 1 YSHT1330952 0.105627 60.000000 38.269906 0.084993 0.000000
YSHT1330945 1 YSHT1330945 0.099998 63.333333 37.236194 0.235034 0.000000
YSHT1330953 1 YSHT1330953 0.116690 60.000000 40.224136 0.339542 0.000000
YSBT6201110 1 YSBT6201110 0.102433 60.000000 37.686795 7.688184 0.000000
YSHT1330954 1 YSHT1330954 0.171491 60.000000 48.762944 0.078736 0.000000
YSHT1330944 1 YSHT1330944 0.046214 60.000000 25.313637 7.595141 0.000000
YSHT1330936 1 YSHT1330936 0.137272 62.112676 43.627464 0.044639 0.000000
YSHT1330943 1 YSHT1330943 0.103357 62.019231 37.856446 0.331327 0.000000
YSBT6200105 1 YSBT6200105 0.273455 89.347826 61.576016 0.475219 0.000000
YSBT6201205 1 YSBT6201205 1.562627 60.209125 147.196220 0.329148 0.000000
YSBT6200136 1 YSBT6200136 0.158504 89.629630 46.880102 0.301646 0.000000
YSBT6201207 1 YSBT6201207 0.026596 60.000000 19.203217 0.220628 0.000000
YSBT6200035 1 YSBT6200035 0.176436 89.329609 49.461020 0.290246 0.000000
YSHT1330942 1 YSHT1330942 0.208597 72.796209 53.780327 0.107012 0.000000
YSHT1330937 1 YSHT1330937 0.293672 71.839465 63.811734 0.031257 0.000000
YSHT1330940 1 YSHT1330940 0.123619 68.225806 41.401158 0.513951 0.000000
YSHT1330938 1 YSHT1330938 0.140298 63.829787 44.105684 1.839080 0.000000
YSHT1330939 1 YSHT1330939 0.041425 60.697674 23.966277 1.564151 0.000000
YSBT6200039 1 YSBT6200039 0.391580 77.035176 73.685000 0.599752 0.000000
YSBT6200038 1 YSBT6200038 0.178438 87.362637 49.740803 0.000000 0.000000
YSBT6200036 1 YSBT6200036 0.185149 87.914439 50.667530 0.000000 0.000000
YSBT6201108 1 YSBT6201108 0.823192 60.144231 106.836511 0.317482 0.000000
YSBT6200041 1 YSBT6200041 0.499002 71.086957 83.180255 0.000000 0.000000
YSBT6200043 1 YSBT6200043 0.187193 89.536082 50.946484 0.094234 0.000000
YSBT6201008 1 YSBT6201008 1.992044 60.759682 166.195190 9.617318 0.000000
YSBT6201007 1 YSBT6201007 0.170048 90.000000 48.557290 0.000000 0.000000
YSBT6201009 1 YSBT6201009 0.531193 68.339552 85.821326 0.275834 0.000000
YSBT6201010 1 YSBT6201010 0.266726 90.000000 60.813747 0.000000 0.000000
YSHT1140174 1 YSHT1140174 2.564328 62.892403 188.562712 0.315472 0.000000
YSBT6201133 1 YSBT6201133 0.832314 60.176471 107.426813 8.093844 0.000000
YSBT6200050 1 YSBT6200050 0.723657 66.302865 100.169441 0.000000 0.000000
YSHT1140173 1 YSHT1140173 3.030190 62.361744 204.976422 0.192042 0.000000
YSHT1110003 1 YSHT1110003 1.154608 42.555746 126.527919 0.000000 0.000000
YSHT1110169 1 YSHT1110169 1.020116 60.000000 118.930669 0.000000 0.000000
YSHT1140172 1 YSHT1140172 0.781129 68.030303 104.071149 0.179590 0.000000
YSHT1110004 1 YSHT1110004 0.465600 32.138298 80.348069 0.000000 0.000000
YSHT1140171 1 YSHT1140171 0.386109 76.923077 73.168426 0.210181 0.000000
YSHT1110006 1 YSHT1110006 0.253672 74.708171 59.306961 0.298271 0.000000
YSHV1130150 1 YSHV1130150 0.470562 74.140127 80.775047 0.021952 0.000000
YSHV1502101 1 YSHV1502101 0.138061 29.375000 43.752742 0.986747 0.000000
YSHV1502100 1 YSHV1502100 0.152861 26.806452 46.038145 0.000000 0.000000
YSHV1130149 1 YSHV1130149 0.357954 77.416667 70.450230 0.131755 0.000000
YSHV1502099 1 YSHV1502099 0.204731 28.774510 53.279556 0.888846 0.000000
YSHV1502102 1 YSHV1502102 0.196574 60.000000 52.207387 0.609780 0.000000
YSHV1502098 1 YSHV1502098 0.168015 26.875000 48.266141 0.000000 0.000000
YSHV1502097 1 YSHV1502097 0.172218 26.441176 48.866219 0.000000 0.000000
YSHV1130148 1 YSHV1130148 0.482731 72.134146 81.812842 0.091997 0.000000
YSHV1502103 1 YSHV1502103 0.077930 60.000000 32.871702 19.736565 0.000000
YSHV1502096 1 YSHV1502096 0.226870 29.242424 56.086369 0.293049 0.000000
YSHV1502106 1 YSHV1502106 0.319401 60.000000 66.548308 0.350405 0.000000
YSHV1502104 1 YSHV1502104 0.127965 60.000000 42.122490 1.056553 0.000000
YSHV1502095 1 YSHV1502095 0.207610 25.330189 53.652944 0.000000 0.000000
YSHV1502105 1 YSHV1502105 0.082130 60.000000 33.745717 0.434258 0.000000
YSHV1120782 1 YSHV1120782 0.296695 37.097315 64.139259 12.214659 0.000000
YSHV1502109 1 YSHV1502109 0.146031 60.000000 44.997863 17.475770 0.000000
YSHV1502094 1 YSHV1502094 0.098568 26.750000 36.968915 0.645714 0.000000
YSHV1130147 1 YSHV1130147 0.465047 80.338983 80.300306 0.121913 0.000000
YSHV1502093 1 YSHV1502093 0.152040 25.000000 45.914363 0.000000 0.000000
YSHV1120780 1 YSHV1120780 0.445789 59.525959 78.620120 1.314791 0.000000
YSHV1502110 1 YSHV1502110 0.200780 60.000000 52.762982 0.836748 0.000000
YSHV1120783 1 YSHV1120783 0.240379 48.429752 57.732108 1.327193 0.000000
YSHV1502117 1 YSHV1502117 0.103492 60.000000 37.881040 19.439503 0.000000
YSHV1502111 1 YSHV1502111 0.111195 60.000000 39.265629 0.114358 0.000000
YSHV1502112 1 YSHV1502112 0.254848 60.000000 59.444194 0.057874 0.000000
YSHV1502107 1 YSHV1502107 0.316869 60.000000 66.284075 0.085822 0.000000
YSHV1502092 1 YSHV1502092 0.305913 49.126214 65.128035 0.258979 0.000000
YSHV1502119 1 YSHV1502119 0.199023 60.000000 52.531655 0.090583 0.000000
YSHV1502113 1 YSHV1502113 0.314143 60.000000 65.998264 0.122982 0.000000
YSHV1502120 1 YSHV1502120 0.090505 60.000000 35.424687 24.116102 0.000000
YSHV1120781 1 YSHV1120781 0.102454 60.000000 37.690705 1.443841 0.000000
YSHV1502118 1 YSHV1502118 0.045126 60.000000 25.013867 0.449477 0.000000
YSHV1502108 1 YSHV1502108 0.180993 60.000000 50.095646 0.000000 0.000000
YSHV1120784 1 YSHV1120784 0.117047 60.000000 40.285608 2.748067 0.000000
YSBT6201011 1 YSBT6201011 0.256343 79.310345 59.618349 0.049932 0.000000
YSHV1120785 1 YSHV1120785 0.245515 60.000000 58.345631 6.322592 0.000000
YSHV1120792 1 YSHV1120792 0.621459 60.000000 92.827221 0.355873 0.000000
YSHV1502114 1 YSHV1502114 0.139553 60.000000 43.988415 0.117071 0.000000
YSHV1120787 1 YSHV1120787 0.257335 60.000000 59.733535 1.754330 0.000000
YSHV1502090 1 YSHV1502090 0.338426 60.000000 68.501651 0.404187 0.000000
YSHV1502116 1 YSHV1502116 0.068863 60.000000 30.900199 36.240733 0.000000
YSHV1120791 1 YSHV1120791 0.352288 60.000000 69.890418 0.000000 0.000000
YSHV1502115 1 YSHV1502115 0.049132 60.000000 26.100610 2.699381 0.000000
YSHV1120790 1 YSHV1120790 0.161966 60.000000 47.389392 0.000000 0.000000
YSHV1502091 1 YSHV1502091 0.148678 60.000000 45.403806 0.115990 0.000000
YSHV1502133 1 YSHV1502133 0.088171 68.764045 34.964911 0.424696 0.000000
YSHV1502085 1 YSHV1502085 0.191688 60.000000 51.554493 0.155925 0.000000
YSHV1120788 1 YSHV1120788 0.138745 60.000000 43.860940 0.896093 0.000000
YSHV1120800 1 YSHV1120800 0.281403 60.000000 62.464562 0.423207 0.000000
YSHV1502131 1 YSHV1502131 0.046227 60.000000 25.317177 0.760204 0.000000
YSHV1502084 1 YSHV1502084 0.289517 60.000000 63.358629 0.390170 0.000000
YSBT6201013 1 YSBT6201013 0.026371 61.153846 19.121842 9.233717 0.000000
YSBT6201012 1 YSBT6201012 0.126090 90.000000 41.812878 0.000000 0.000000
YSHV1120803 1 YSHV1120803 0.413947 60.000000 75.760277 0.399161 0.000000
YSHV1502086 1 YSHV1502086 0.177720 60.000000 49.640633 0.058182 0.000000
YSHV1120793 1 YSHV1120793 0.258765 60.000000 59.899284 0.299383 0.000000
YSHV1502130 1 YSHV1502130 0.079761 72.750000 33.255574 0.372352 0.000000
YSHV1120795 1 YSHV1120795 0.150849 60.000000 45.734058 0.249004 0.000000
YSHV1120797 1 YSHV1120797 0.061102 60.000000 29.106873 1.239102 0.000000
YSHV1120794 1 YSHV1120794 0.119443 60.000000 40.695789 0.074169 0.000000
YSHV1120796 1 YSHV1120796 0.107249 60.000000 38.562627 0.960376 0.000000
YSHV1502087 1 YSHV1502087 0.108414 60.000000 38.771436 0.346605 0.000000
YSHV1502083 1 YSHV1502083 0.139759 60.000000 44.020857 0.232472 0.000000
YSHV1502129 1 YSHV1502129 0.113513 69.473684 39.672782 0.000000 0.000000
YSHV1120799 1 YSHV1120799 0.126189 60.000000 41.829193 0.169009 0.000000
YSHV1502089 1 YSHV1502089 0.060127 60.000000 28.873829 31.340755 0.000000
YSHV1502088 1 YSHV1502088 0.072416 60.000000 31.687471 2.093435 0.000000
YSHV1502082 1 YSHV1502082 0.134001 60.000000 43.104469 0.000000 0.000000
YSHV1502138 1 YSHV1502138 0.192958 60.000000 51.724935 0.114896 0.000000
YSHV1120805 1 YSHV1120805 0.397508 60.000000 74.240643 0.529704 0.000000
YSHV1120798 1 YSHV1120798 0.081018 60.000000 33.516645 0.059914 0.000000
YSHV1502128 1 YSHV1502128 0.082360 61.071429 33.792964 0.000000 0.000000
YSHV1502081 1 YSHV1502081 0.101820 60.000000 37.573787 0.230475 0.000000
YSBT6201014 1 YSBT6201014 0.164191 88.562874 47.713731 0.019846 0.000000
YSHV1120801 1 YSHV1120801 0.071546 60.000000 31.496415 1.106792 0.000000
YSHV1502137 1 YSHV1502137 0.087059 60.000000 34.743682 0.115158 0.000000
YSHV1502136 1 YSHV1502136 0.085586 60.000000 34.448588 0.115061 0.000000
YSHV1502080 1 YSHV1502080 0.075269 60.000000 32.305517 2.669058 0.000000
YSHV1120806 1 YSHV1120806 0.230523 60.000000 56.536196 0.372092 0.000000
YSHV1120808 1 YSHV1120808 0.185200 60.000000 50.674464 1.612902 0.000000
YSHV1120807 1 YSHV1120807 0.121065 60.000000 40.971160 1.023891 0.000000
YSHV1120809 1 YSHV1120809 0.192808 60.000000 51.704883 0.055096 0.000000
YSHV1120813 1 YSHV1120813 0.359448 60.000000 70.597101 0.357696 0.000000
YSHV1120811 1 YSHV1120811 0.124418 60.000000 41.534582 0.813348 0.000000
YSHV1502079 1 YSHV1502079 0.055445 60.000000 27.726869 2.710881 0.000000
YSHV1120810 1 YSHV1120810 0.138983 60.000000 43.898441 0.327599 0.000000
YSHV1502135 1 YSHV1502135 0.077945 60.000000 32.874897 0.000000 0.000000
YSHV1502127 1 YSHV1502127 0.104072 70.934579 37.987038 0.000000 0.000000
YSHV1120812 1 YSHV1120812 0.121243 60.000000 41.001189 0.063061 0.000000
YSHV1502134 1 YSHV1502134 0.075841 60.000000 32.427959 0.922607 0.000000
YSHV1120826 1 YSHV1120826 0.525463 60.000000 85.357150 0.340425 0.000000
YSHV1502139 1 YSHV1502139 0.073312 60.000000 31.882815 0.237151 0.000000
YSHV1502078 1 YSHV1502078 0.018073 60.000000 15.830267 49.027988 0.000000
YSHV1502140 1 YSHV1502140 0.050114 60.000000 26.360250 0.456064 0.000000
YSHV1502121 1 YSHV1502121 0.036977 60.000000 22.643145 20.006344 0.000000
YSHV1120816 1 YSHV1120816 0.186507 60.000000 50.853015 4.481690 0.000000
YSHV1502149 1 YSHV1502149 0.042323 60.000000 24.224562 31.918375 0.000000
YSBT6201015 1 YSBT6201015 0.144446 89.795918 44.752975 0.000000 0.000000
YSHT1331380 1 YSHT1331380 0.105177 60.000000 38.188220 8.859043 0.000000
YSHV1502126 1 YSHV1502126 0.009406 60.000000 11.420157 0.000000 0.000000
YSHV1120864 1 YSHV1120864 0.127359 60.000000 42.022637 0.177904 0.000000
YSBT6201016 1 YSBT6201016 0.027172 60.000000 19.410093 6.323228 0.000000
YSHV1502150 1 YSHV1502150 0.020760 60.000000 16.966266 0.000000 0.000000
YSHV1120820 1 YSHV1120820 0.204345 60.000000 53.229289 0.224358 0.000000
YSHV1502122 1 YSHV1502122 0.086700 71.123596 34.672006 0.000000 0.000000
YSHV1120821 1 YSHV1120821 0.177519 60.000000 49.612596 0.262352 0.000000
YSHV1120819 1 YSHV1120819 0.192966 60.000000 51.726086 0.000000 0.000000
YSHV1120822 1 YSHV1120822 0.131651 60.000000 42.724876 0.265369 0.000000
YSHV1120817 1 YSHV1120817 0.234080 60.000000 56.970656 0.156986 0.000000
YSHT1331515 1 YSHT1331515 0.088644 60.000000 35.058514 10.752295 0.000000
YSHV1502124 1 YSHV1502124 0.107226 60.000000 38.558452 0.076978 0.000000
YSHV1120824 1 YSHV1120824 0.132155 60.000000 42.806622 8.690125 0.000000
YSHV1502123 1 YSHV1502123 0.150624 72.193548 45.700004 0.371029 0.000000
YSHT1330998 1 YSHT1330998 0.124136 60.000000 41.487633 0.640096 0.000000
YSHV1120827 1 YSHV1120827 0.100253 60.000000 37.283595 0.255820 0.000000
YSHV1120844 1 YSHV1120844 0.119337 60.000000 40.677695 0.814316 0.000000
YSHT1330997 1 YSHT1330997 0.144169 60.000000 44.709967 0.832026 0.000000
YSHV1120862 1 YSHV1120862 0.047251 60.000000 25.596086 9.062275 0.000000
YSHV1120861 1 YSHV1120861 0.088366 60.000000 35.003568 1.621881 0.000000
YSHV1120863 1 YSHV1120863 0.041288 60.000000 23.926620 9.572116 0.000000
YSHV1120833 1 YSHV1120833 0.090754 60.000000 35.473253 0.727245 0.000000
YSHV1120825 1 YSHV1120825 0.150342 60.000000 45.657117 1.231747 0.000000
YSHT1331518 1 YSHT1331518 0.053609 60.000000 27.263876 1.354209 0.000000
YSHV1120838 1 YSHV1120838 0.091242 60.000000 35.568661 1.713709 0.000000
YSHV1120839 1 YSHV1120839 0.086091 60.000000 34.549986 2.770394 0.000000
YSHV1120847 1 YSHV1120847 0.100974 60.000000 37.417389 2.852481 0.000000
YSHV1120841 1 YSHV1120841 0.063996 60.000000 29.788240 1.049321 0.000000
YSBT6201017 1 YSBT6201017 0.228663 83.478261 56.307538 0.266880 0.000000
YSHV1120846 1 YSHV1120846 0.062351 60.000000 29.402948 2.391490 0.000000
YSHV1120840 1 YSHV1120840 0.078804 60.000000 33.055498 1.821875 0.000000
YSHT1331517 1 YSHT1331517 0.123879 60.000000 41.444588 0.214177 0.000000
YSHV1120860 1 YSHV1120860 0.064302 60.000000 29.859364 3.919317 0.000000
YSHV1120845 1 YSHV1120845 0.046856 60.000000 25.489029 0.212089 0.000000
YSHV1120842 1 YSHV1120842 0.050341 60.000000 26.419927 0.194552 0.000000
YSHT1330968 1 YSHT1330968 0.356425 75.000000 70.299623 0.313954 0.000000
YSHV1120843 1 YSHV1120843 0.036901 60.000000 22.619764 0.088574 0.000000
YSHV1120848 1 YSHV1120848 0.092069 60.000000 35.729436 2.075878 0.000000
YSHT1331516 1 YSHT1331516 0.240179 66.885246 57.708072 0.202834 0.000000
YSHT1330969 1 YSHT1330969 0.099689 69.300000 37.178642 0.076610 0.000000
YSHV1120834 1 YSHV1120834 0.082792 60.000000 33.881546 0.711704 0.000000
YSHV1120836 1 YSHV1120836 0.073844 60.000000 31.998334 1.098474 0.000000
YSHV1120835 1 YSHV1120835 0.094690 60.000000 36.234489 0.528164 0.000000
YSHT1330996 1 YSHT1330996 0.154537 60.000000 46.289817 0.241058 0.000000
YSHV1120829 1 YSHV1120829 0.103426 60.000000 37.869033 0.000000 0.000000
YSHT1330970 1 YSHT1330970 0.076668 63.375000 32.604409 0.105330 0.000000
YSHT1340521 1 YSHT1340521 0.092432 60.000000 35.799777 0.055710 0.000000
YSHV1120831 1 YSHV1120831 0.127749 60.000000 42.087043 0.509423 0.000000
YSHT1330976 1 YSHT1330976 0.040994 60.000000 23.841238 0.772436 0.000000
YSHT1330995 1 YSHT1330995 0.130248 60.000000 42.496558 0.000000 0.000000
YSHV1120832 1 YSHV1120832 0.124925 60.000000 41.619134 0.940591 0.000000
YSHT1330971 1 YSHT1330971 0.041630 60.000000 24.025489 4.247583 0.000000
YSHT1331341 1 YSHT1331341 0.051792 60.000000 26.797796 0.063654 0.000000
YSHV1120856 1 YSHV1120856 0.077579 60.000000 32.797424 0.627446 0.000000
YSHV1120855 1 YSHV1120855 0.075753 60.000000 32.409226 0.209783 0.000000
YSHV1120854 1 YSHV1120854 0.079447 60.000000 33.189963 5.305855 0.000000
YSHV1120857 1 YSHV1120857 0.079571 60.000000 33.216029 0.975394 0.000000
YSHT1330994 1 YSHT1330994 0.078604 60.000000 33.013382 3.295166 0.000000
YSHT1330972 1 YSHT1330972 0.060075 64.354839 28.861234 0.000000 0.000000
YSBT6201019 1 YSBT6201019 0.076658 60.769231 32.602359 6.705956 0.000000
YSBT6201106 1 YSBT6201106 0.025376 60.000000 18.757848 6.005786 0.000000
YSHT1340520 1 YSHT1340520 0.045150 60.000000 25.020670 9.186098 0.000000
YSBT6201018 1 YSBT6201018 0.220849 89.327354 55.337158 0.000000 0.000000
YSHT1330973 1 YSHT1330973 0.098781 69.705882 37.008837 1.059150 0.000000
YSBT6200044 1 YSBT6200044 0.148744 89.189189 45.413825 0.000000 0.000000
YSHT1330993 1 YSHT1330993 0.080732 60.000000 33.457470 1.858631 0.000000
YSHT1330992 1 YSHT1330992 0.104883 60.000000 38.134885 0.000000 0.000000
YSHT1330974 1 YSHT1330974 0.097951 68.400000 36.852979 0.234291 0.000000
YSHT1330991 1 YSHT1330991 0.091800 60.000000 35.677194 0.000000 0.000000
YSHV1120849 1 YSHV1120849 0.119847 60.000000 40.764547 1.504464 0.000000
YSHT1330975 1 YSHT1330975 0.222991 75.000000 55.604833 0.512821 0.000000
YSHT1330990 1 YSHT1330990 0.135420 60.000000 43.332240 0.000000 0.000000
YSHV1120851 1 YSHV1120851 0.128875 60.000000 42.272000 1.939488 0.000000
YSHV1120852 1 YSHV1120852 0.091530 60.000000 35.624617 1.448548 0.000000
YSHT1330977 1 YSHT1330977 0.153663 68.181818 46.158660 0.102770 0.000000
YSBT6201020 1 YSBT6201020 0.284379 82.891986 62.793980 0.106931 0.000000
YSHT1330989 1 YSHT1330989 0.089962 60.000000 35.318243 0.000000 0.000000
YSHT1330978 1 YSHT1330978 0.061050 60.000000 29.094638 0.000000 0.000000
YSHT1330988 1 YSHT1330988 0.106437 60.000000 38.416304 0.205390 0.000000